xflr5 v6.61

Plane Name
T1-10.0 m/s-Panel-Inviscid
QInf  =   10.000000 m/s
Alpha =    0.000000
Beta  =    0.000°
Phi   =    0.000°
Ctrl  =    0.000
CL    =    0.143864
Cy    =   -0.000000
Cd    =    0.000717     ICd   =    0.000717     PCd   =    0.000000
Cl   = -3.50073e-15
Cm   =   -0.151054
ICn   =    0.000000     PCn   =    0.000000 
XCP   =    2.110672     YCP   =    0.000000     ZCP   =    0.520700  
XNP   =    0.000000
Bending =  468.072932

Main Wing
  y-span        Chord      Ai         Cl        PCd          ICd        CmGeom    CmAirf@chord/4    XTrtop    XTrBot      XCP       BM
   -8.5119     1.0027    -1.301    0.043543    0.000000    0.000989   -0.163866   -0.017611     0.0000    0.0000    0.5775    0.0000
   -8.4594     1.0135    -1.017    0.071978    0.000000    0.001278   -0.226716   -0.025533     0.0000    0.0000    0.5909    0.0037
   -8.3547     1.0349    -0.775    0.096649    0.000000    0.001308   -0.273701   -0.029751     0.0000    0.0000    0.5664    0.0486
   -8.1986     1.0670    -0.597    0.115641    0.000000    0.001205   -0.312313   -0.033658     0.0000    0.0000    0.5490    0.2425
   -7.9919     1.1094    -0.469    0.129524    0.000000    0.001060   -0.332540   -0.036320     0.0000    0.0000    0.5361    0.7876
   -7.7360     1.1620    -0.379    0.139265    0.000000    0.000921   -0.336221   -0.037962     0.0000    0.0000    0.5267    1.9932
   -7.4323     1.2243    -0.317    0.145810    0.000000    0.000806   -0.327631   -0.038940     0.0000    0.0000    0.5203    4.2806
   -7.0828     1.2960    -0.275    0.149951    0.000000    0.000721   -0.310884   -0.039518     0.0000    0.0000    0.5163    8.1834
   -6.6897     1.3768    -0.249    0.152304    0.000000    0.000662   -0.289273   -0.039859     0.0000    0.0000    0.5142   14.3427
   -6.2553     1.4659    -0.234    0.153327    0.000000    0.000625   -0.265224   -0.040056     0.0000    0.0000    0.5137   23.4977
   -5.7823     1.5630    -0.226    0.153350    0.000000    0.000606   -0.240427   -0.040167     0.0000    0.0000    0.5144   36.4723
   -5.2737     1.6674    -0.225    0.152605    0.000000    0.000600   -0.216005   -0.040221     0.0000    0.0000    0.5162   54.1549
   -4.7326     1.7785    -0.229    0.151248    0.000000    0.000605   -0.192662   -0.040241     0.0000    0.0000    0.5189   77.4735
   -4.1623     1.8956    -0.236    0.149362    0.000000    0.000615   -0.170785   -0.040227     0.0000    0.0000    0.5224   107.3642
   -3.5663     2.0179    -0.246    0.147024    0.000000    0.000632   -0.150618   -0.040200     0.0000    0.0000    0.5269   144.7341
   -2.9484     2.1448    -0.259    0.144259    0.000000    0.000652   -0.132244   -0.040170     0.0000    0.0000    0.5323   190.4200
   -2.3122     2.2753    -0.273    0.141070    0.000000    0.000674   -0.115682   -0.040156     0.0000    0.0000    0.5390   245.1437
   -1.6619     2.4089    -0.290    0.137453    0.000000    0.000696   -0.100940   -0.040204     0.0000    0.0000    0.5474   309.4655
   -1.0012     2.5445    -0.311    0.133403    0.000000    0.000724   -0.088085   -0.040424     0.0000    0.0000    0.5585   383.7395
   -0.3344     2.6813    -0.355    0.128797    0.000000    0.000800   -0.077367   -0.041071     0.0000    0.0000    0.5739   468.0729
    0.3344     2.6813    -0.355    0.128797    0.000000    0.000800   -0.077367   -0.041071     0.0000    0.0000    0.5739   468.0729
    1.0012     2.5445    -0.311    0.133403    0.000000    0.000724   -0.088085   -0.040424     0.0000    0.0000    0.5585   383.7395
    1.6619     2.4089    -0.290    0.137453    0.000000    0.000696   -0.100940   -0.040204     0.0000    0.0000    0.5474   309.4655
    2.3122     2.2753    -0.273    0.141070    0.000000    0.000674   -0.115682   -0.040156     0.0000    0.0000    0.5390   245.1437
    2.9484     2.1448    -0.259    0.144259    0.000000    0.000652   -0.132244   -0.040170     0.0000    0.0000    0.5323   190.4200
    3.5663     2.0179    -0.246    0.147024    0.000000    0.000632   -0.150618   -0.040200     0.0000    0.0000    0.5269   144.7341
    4.1623     1.8956    -0.236    0.149362    0.000000    0.000615   -0.170785   -0.040227     0.0000    0.0000    0.5224   107.3642
    4.7326     1.7785    -0.229    0.151248    0.000000    0.000605   -0.192662   -0.040241     0.0000    0.0000    0.5189   77.4735
    5.2737     1.6674    -0.225    0.152605    0.000000    0.000600   -0.216005   -0.040221     0.0000    0.0000    0.5162   54.1549
    5.7823     1.5630    -0.226    0.153350    0.000000    0.000606   -0.240427   -0.040167     0.0000    0.0000    0.5144   36.4723
    6.2553     1.4659    -0.234    0.153327    0.000000    0.000625   -0.265224   -0.040056     0.0000    0.0000    0.5137   23.4977
    6.6897     1.3768    -0.249    0.152304    0.000000    0.000662   -0.289273   -0.039859     0.0000    0.0000    0.5142   14.3427
    7.0828     1.2960    -0.275    0.149951    0.000000    0.000721   -0.310884   -0.039518     0.0000    0.0000    0.5163    8.1834
    7.4323     1.2243    -0.317    0.145810    0.000000    0.000806   -0.327631   -0.038940     0.0000    0.0000    0.5203    4.2806
    7.7360     1.1620    -0.379    0.139265    0.000000    0.000921   -0.336221   -0.037962     0.0000    0.0000    0.5267    1.9932
    7.9919     1.1094    -0.469    0.129524    0.000000    0.001060   -0.332540   -0.036320     0.0000    0.0000    0.5361    0.7876
    8.1986     1.0670    -0.597    0.115641    0.000000    0.001205   -0.312313   -0.033658     0.0000    0.0000    0.5490    0.2425
    8.3547     1.0349    -0.775    0.096649    0.000000    0.001308   -0.273701   -0.029751     0.0000    0.0000    0.5664    0.0486
    8.4594     1.0135    -1.017    0.071978    0.000000    0.001278   -0.226716   -0.025533     0.0000    0.0000    0.5909    0.0037
    8.5119     1.0027    -1.301    0.043543    0.000000    0.000989   -0.163866   -0.017611     0.0000    0.0000    0.5775    0.0000


Main Wing Cp Coefficients
 Panel     CtrlPt.x        CtrlPt.y        CtrlPt.z       Nx      Ny       Nz        Area       Cp
Main WingCp Coefficients
Strip 1
  20       3.461e+00      -8.492e+00       5.790e-01          -0.036          -0.071          -0.997       1.623e-04          0.1362
  21       3.449e+00      -8.492e+00       5.793e-01          -0.020          -0.070          -0.997       4.827e-04          0.1356
  22       3.424e+00      -8.492e+00       5.793e-01           0.016          -0.066          -0.998       7.913e-04          0.1287
  23       3.389e+00      -8.492e+00       5.778e-01           0.059          -0.062          -0.996       1.082e-03          0.1038
  24       3.343e+00      -8.492e+00       5.744e-01           0.086          -0.059          -0.995       1.348e-03          0.0698
  25       3.287e+00      -8.493e+00       5.691e-01           0.104          -0.057          -0.993       1.581e-03          0.0393
  26       3.224e+00      -8.493e+00       5.621e-01           0.114          -0.056          -0.992       1.775e-03          0.0063
  27       3.154e+00      -8.494e+00       5.542e-01           0.114          -0.056          -0.992       1.924e-03         -0.0284
  28       3.079e+00      -8.494e+00       5.460e-01           0.105          -0.057          -0.993       2.023e-03         -0.0636
  29       3.002e+00      -8.495e+00       5.386e-01           0.087          -0.060          -0.994       2.071e-03         -0.0990
  30       2.923e+00      -8.495e+00       5.328e-01           0.059          -0.066          -0.996       2.067e-03         -0.1345
  31       2.846e+00      -8.495e+00       5.300e-01           0.014          -0.075          -0.997       2.013e-03         -0.1551
  32       2.771e+00      -8.495e+00       5.303e-01          -0.023          -0.083          -0.996       1.913e-03         -0.1568
  33       2.701e+00      -8.495e+00       5.330e-01          -0.055          -0.090          -0.994       1.768e-03         -0.1560
  34       2.638e+00      -8.495e+00       5.374e-01          -0.086          -0.098          -0.991       1.580e-03         -0.1577
  35       2.582e+00      -8.495e+00       5.431e-01          -0.122          -0.107          -0.987       1.355e-03         -0.1637
  36       2.536e+00      -8.494e+00       5.498e-01          -0.170          -0.119          -0.978       1.099e-03         -0.1772
  37       2.501e+00      -8.494e+00       5.572e-01          -0.247          -0.139          -0.959       8.193e-04         -0.2056
  38       2.477e+00      -8.493e+00       5.652e-01          -0.414          -0.182          -0.892       5.353e-04         -0.2255
  39       2.464e+00      -8.492e+00       5.748e-01          -0.840          -0.275          -0.468       3.339e-04          0.4923
  40       2.464e+00      -8.492e+00       5.855e-01          -0.844          -0.211           0.493       3.395e-04          0.5397
  41       2.477e+00      -8.491e+00       5.962e-01          -0.488          -0.084           0.869       5.604e-04         -0.1059
  42       2.501e+00      -8.490e+00       6.066e-01          -0.329          -0.034           0.944       8.419e-04         -0.1869
  43       2.536e+00      -8.490e+00       6.170e-01          -0.241          -0.008           0.970       1.115e-03         -0.2063
  44       2.582e+00      -8.489e+00       6.268e-01          -0.181           0.009           0.984       1.366e-03         -0.2130
  45       2.638e+00      -8.488e+00       6.355e-01          -0.132           0.023           0.991       1.586e-03         -0.2166
  46       2.701e+00      -8.488e+00       6.425e-01          -0.090           0.033           0.995       1.769e-03         -0.2198
  47       2.771e+00      -8.488e+00       6.472e-01          -0.047           0.043           0.998       1.910e-03         -0.2238
  48       2.846e+00      -8.487e+00       6.490e-01          -0.001           0.053           0.999       2.008e-03         -0.2228
  49       2.923e+00      -8.488e+00       6.469e-01           0.054           0.064           0.996       2.061e-03         -0.2003
  50       3.002e+00      -8.488e+00       6.412e-01           0.091           0.071           0.993       2.067e-03         -0.1612
  51       3.079e+00      -8.488e+00       6.330e-01           0.119           0.076           0.990       2.022e-03         -0.1220
  52       3.154e+00      -8.489e+00       6.234e-01           0.138           0.079           0.987       1.927e-03         -0.0838
  53       3.224e+00      -8.490e+00       6.133e-01           0.150           0.080           0.985       1.782e-03         -0.0476
  54       3.287e+00      -8.490e+00       6.036e-01           0.153           0.080           0.985       1.590e-03         -0.0166
  55       3.343e+00      -8.491e+00       5.952e-01           0.148           0.080           0.986       1.357e-03          0.0067
  56       3.389e+00      -8.492e+00       5.885e-01           0.139           0.079           0.987       1.091e-03          0.0238
  57       3.424e+00      -8.492e+00       5.837e-01           0.126           0.078           0.989       7.976e-04          0.0393
  58       3.449e+00      -8.492e+00       5.807e-01           0.116           0.077           0.990       4.860e-04          0.0634
  59       3.461e+00      -8.492e+00       5.793e-01           0.112           0.077           0.991       1.632e-04          0.0817
Strip 2
  60       3.456e+00      -8.440e+00       5.755e-01          -0.036          -0.071          -0.997       4.912e-04          0.1818
  61       3.444e+00      -8.440e+00       5.758e-01          -0.020          -0.070          -0.997       1.461e-03          0.1873
  62       3.419e+00      -8.440e+00       5.757e-01           0.016          -0.066          -0.998       2.394e-03          0.1888
  63       3.383e+00      -8.440e+00       5.742e-01           0.059          -0.062          -0.996       3.275e-03          0.1658
  64       3.337e+00      -8.440e+00       5.708e-01           0.086          -0.059          -0.995       4.079e-03          0.1237
  65       3.281e+00      -8.440e+00       5.654e-01           0.104          -0.057          -0.993       4.785e-03          0.0797
  66       3.217e+00      -8.441e+00       5.584e-01           0.114          -0.056          -0.992       5.371e-03          0.0327
  67       3.146e+00      -8.441e+00       5.503e-01           0.114          -0.056          -0.992       5.821e-03         -0.0163
  68       3.071e+00      -8.442e+00       5.421e-01           0.105          -0.057          -0.993       6.122e-03         -0.0659
  69       2.992e+00      -8.443e+00       5.346e-01           0.087          -0.060          -0.994       6.266e-03         -0.1159
  70       2.913e+00      -8.443e+00       5.288e-01           0.059          -0.066          -0.996       6.254e-03         -0.1655
  71       2.835e+00      -8.443e+00       5.259e-01           0.014          -0.075          -0.997       6.091e-03         -0.1939
  72       2.759e+00      -8.443e+00       5.262e-01          -0.023          -0.083          -0.996       5.788e-03         -0.1960
  73       2.689e+00      -8.443e+00       5.289e-01          -0.055          -0.090          -0.994       5.349e-03         -0.1944
  74       2.625e+00      -8.443e+00       5.334e-01          -0.086          -0.098          -0.991       4.782e-03         -0.1960
  75       2.569e+00      -8.442e+00       5.392e-01          -0.122          -0.107          -0.987       4.101e-03         -0.2023
  76       2.522e+00      -8.442e+00       5.459e-01          -0.170          -0.119          -0.978       3.324e-03         -0.2124
  77       2.486e+00      -8.441e+00       5.534e-01          -0.247          -0.139          -0.959       2.479e-03         -0.2254
  78       2.462e+00      -8.441e+00       5.615e-01          -0.414          -0.182          -0.892       1.620e-03         -0.2106
  79       2.449e+00      -8.440e+00       5.712e-01          -0.840          -0.275          -0.469       1.010e-03          0.5284
  80       2.449e+00      -8.439e+00       5.820e-01          -0.844          -0.211           0.493       1.027e-03          0.6016
  81       2.462e+00      -8.439e+00       5.928e-01          -0.488          -0.084           0.869       1.696e-03         -0.0579
  82       2.486e+00      -8.438e+00       6.034e-01          -0.329          -0.034           0.944       2.547e-03         -0.1923
  83       2.522e+00      -8.437e+00       6.139e-01          -0.241          -0.008           0.970       3.375e-03         -0.2434
  84       2.569e+00      -8.437e+00       6.238e-01          -0.181           0.009           0.984       4.134e-03         -0.2631
  85       2.625e+00      -8.436e+00       6.325e-01          -0.132           0.023           0.991       4.798e-03         -0.2716
  86       2.689e+00      -8.436e+00       6.396e-01          -0.090           0.033           0.995       5.352e-03         -0.2775
  87       2.759e+00      -8.435e+00       6.444e-01          -0.047           0.043           0.998       5.780e-03         -0.2841
  88       2.835e+00      -8.435e+00       6.462e-01          -0.001           0.053           0.999       6.075e-03         -0.2845
  89       2.913e+00      -8.435e+00       6.441e-01           0.054           0.064           0.996       6.237e-03         -0.2556
  90       2.992e+00      -8.436e+00       6.383e-01           0.091           0.071           0.993       6.255e-03         -0.2037
  91       3.071e+00      -8.436e+00       6.300e-01           0.119           0.076           0.990       6.120e-03         -0.1520
  92       3.146e+00      -8.437e+00       6.203e-01           0.138           0.079           0.987       5.831e-03         -0.1026
  93       3.217e+00      -8.437e+00       6.101e-01           0.150           0.080           0.985       5.392e-03         -0.0559
  94       3.281e+00      -8.438e+00       6.003e-01           0.153           0.080           0.985       4.812e-03         -0.0136
  95       3.337e+00      -8.439e+00       5.918e-01           0.148           0.080           0.986       4.108e-03          0.0233
  96       3.383e+00      -8.439e+00       5.850e-01           0.139           0.079           0.987       3.301e-03          0.0542
  97       3.419e+00      -8.439e+00       5.802e-01           0.126           0.078           0.989       2.413e-03          0.0811
  98       3.444e+00      -8.440e+00       5.772e-01           0.116           0.077           0.990       1.471e-03          0.1135
  99       3.456e+00      -8.440e+00       5.757e-01           0.112           0.077           0.991       4.940e-04          0.1361
Strip 3
 100       3.448e+00      -8.335e+00       5.684e-01          -0.036          -0.071          -0.997       8.326e-04          0.2108
 101       3.435e+00      -8.335e+00       5.687e-01          -0.020          -0.070          -0.997       2.476e-03          0.2183
 102       3.410e+00      -8.335e+00       5.686e-01           0.016          -0.066          -0.998       4.059e-03          0.2223
 103       3.373e+00      -8.335e+00       5.671e-01           0.059          -0.062          -0.996       5.551e-03          0.1994
 104       3.326e+00      -8.336e+00       5.636e-01           0.086          -0.059          -0.995       6.913e-03          0.1546
 105       3.268e+00      -8.336e+00       5.581e-01           0.104          -0.057          -0.993       8.110e-03          0.1045
 106       3.203e+00      -8.337e+00       5.509e-01           0.114          -0.056          -0.992       9.104e-03          0.0485
 107       3.131e+00      -8.337e+00       5.427e-01           0.114          -0.056          -0.992       9.866e-03         -0.0109
 108       3.054e+00      -8.338e+00       5.343e-01           0.105          -0.057          -0.993       1.038e-02         -0.0721
 109       2.974e+00      -8.338e+00       5.266e-01           0.087          -0.060          -0.994       1.062e-02         -0.1342
 110       2.893e+00      -8.338e+00       5.207e-01           0.059          -0.066          -0.996       1.060e-02         -0.1945
 111       2.813e+00      -8.339e+00       5.177e-01           0.014          -0.075          -0.997       1.032e-02         -0.2291
 112       2.736e+00      -8.339e+00       5.180e-01          -0.023          -0.083          -0.996       9.812e-03         -0.2320
 113       2.664e+00      -8.338e+00       5.208e-01          -0.055          -0.090          -0.994       9.067e-03         -0.2276
 114       2.598e+00      -8.338e+00       5.254e-01          -0.086          -0.098          -0.991       8.106e-03         -0.2230
 115       2.541e+00      -8.338e+00       5.313e-01          -0.122          -0.107          -0.987       6.951e-03         -0.2174
 116       2.493e+00      -8.337e+00       5.382e-01          -0.170          -0.119          -0.978       5.635e-03         -0.2090
 117       2.457e+00      -8.337e+00       5.458e-01          -0.247          -0.139          -0.959       4.203e-03         -0.1993
 118       2.432e+00      -8.336e+00       5.541e-01          -0.414          -0.182          -0.892       2.746e-03         -0.1625
 119       2.419e+00      -8.336e+00       5.640e-01          -0.839          -0.275          -0.469       1.713e-03          0.5790
 120       2.419e+00      -8.335e+00       5.751e-01          -0.844          -0.211           0.492       1.741e-03          0.6513
 121       2.432e+00      -8.334e+00       5.861e-01          -0.489          -0.084           0.868       2.873e-03         -0.0124
 122       2.457e+00      -8.334e+00       5.969e-01          -0.329          -0.034           0.944       4.317e-03         -0.1692
 123       2.493e+00      -8.333e+00       6.076e-01          -0.241          -0.008           0.970       5.720e-03         -0.2479
 124       2.541e+00      -8.332e+00       6.177e-01          -0.181           0.009           0.983       7.006e-03         -0.2929
 125       2.598e+00      -8.332e+00       6.266e-01          -0.132           0.023           0.991       8.132e-03         -0.3190
 126       2.664e+00      -8.331e+00       6.338e-01          -0.090           0.033           0.995       9.071e-03         -0.3354
 127       2.736e+00      -8.331e+00       6.387e-01          -0.047           0.043           0.998       9.796e-03         -0.3477
 128       2.813e+00      -8.331e+00       6.406e-01          -0.001           0.053           0.999       1.030e-02         -0.3491
 129       2.893e+00      -8.331e+00       6.384e-01           0.054           0.064           0.996       1.057e-02         -0.3145
 130       2.974e+00      -8.331e+00       6.325e-01           0.091           0.071           0.993       1.060e-02         -0.2511
 131       3.054e+00      -8.332e+00       6.241e-01           0.119           0.076           0.990       1.037e-02         -0.1856
 132       3.131e+00      -8.332e+00       6.142e-01           0.138           0.079           0.987       9.884e-03         -0.1217
 133       3.203e+00      -8.333e+00       6.037e-01           0.150           0.080           0.985       9.139e-03         -0.0602
 134       3.268e+00      -8.334e+00       5.937e-01           0.152           0.080           0.985       8.156e-03         -0.0036
 135       3.326e+00      -8.334e+00       5.850e-01           0.148           0.080           0.986       6.962e-03          0.0450
 136       3.373e+00      -8.335e+00       5.781e-01           0.139           0.079           0.987       5.595e-03          0.0838
 137       3.410e+00      -8.335e+00       5.732e-01           0.126           0.078           0.989       4.091e-03          0.1152
 138       3.435e+00      -8.335e+00       5.701e-01           0.116           0.077           0.990       2.493e-03          0.1505
 139       3.448e+00      -8.335e+00       5.686e-01           0.112           0.077           0.991       8.373e-04          0.1744
Strip 4
 140       3.434e+00      -8.180e+00       5.577e-01          -0.036          -0.071          -0.997       1.194e-03          0.2220
 141       3.421e+00      -8.180e+00       5.581e-01          -0.020          -0.070          -0.997       3.552e-03          0.2304
 142       3.395e+00      -8.180e+00       5.580e-01           0.016          -0.066          -0.998       5.822e-03          0.2354
 143       3.358e+00      -8.180e+00       5.564e-01           0.059          -0.062          -0.996       7.962e-03          0.2129
 144       3.309e+00      -8.180e+00       5.528e-01           0.086          -0.059          -0.995       9.916e-03          0.1675
 145       3.250e+00      -8.180e+00       5.472e-01           0.104          -0.057          -0.993       1.163e-02          0.1150
 146       3.182e+00      -8.181e+00       5.398e-01           0.114          -0.056          -0.992       1.306e-02          0.0547
 147       3.108e+00      -8.181e+00       5.313e-01           0.114          -0.056          -0.992       1.415e-02         -0.0107
 148       3.028e+00      -8.182e+00       5.226e-01           0.105          -0.057          -0.993       1.488e-02         -0.0786
 149       2.946e+00      -8.182e+00       5.147e-01           0.087          -0.060          -0.994       1.523e-02         -0.1474
 150       2.862e+00      -8.183e+00       5.086e-01           0.059          -0.066          -0.996       1.521e-02         -0.2130
 151       2.780e+00      -8.183e+00       5.055e-01           0.014          -0.075          -0.997       1.481e-02         -0.2500
 152       2.701e+00      -8.183e+00       5.059e-01          -0.023          -0.083          -0.996       1.407e-02         -0.2517
 153       2.626e+00      -8.183e+00       5.087e-01          -0.055          -0.090          -0.994       1.301e-02         -0.2429
 154       2.559e+00      -8.182e+00       5.134e-01          -0.086          -0.098          -0.991       1.163e-02         -0.2313
 155       2.500e+00      -8.182e+00       5.195e-01          -0.122          -0.107          -0.987       9.972e-03         -0.2174
 156       2.451e+00      -8.182e+00       5.266e-01          -0.170          -0.119          -0.978       8.085e-03         -0.2011
 157       2.413e+00      -8.181e+00       5.345e-01          -0.247          -0.139          -0.959       6.030e-03         -0.1839
 158       2.387e+00      -8.181e+00       5.431e-01          -0.414          -0.182          -0.892       3.941e-03         -0.1384
 159       2.374e+00      -8.180e+00       5.532e-01          -0.839          -0.275          -0.470       2.458e-03          0.6002
 160       2.374e+00      -8.179e+00       5.647e-01          -0.845          -0.211           0.492       2.496e-03          0.6579
 161       2.387e+00      -8.178e+00       5.760e-01          -0.489          -0.084           0.868       4.120e-03         -0.0091
 162       2.413e+00      -8.178e+00       5.871e-01          -0.329          -0.034           0.944       6.191e-03         -0.1689
 163       2.451e+00      -8.177e+00       5.982e-01          -0.241          -0.008           0.970       8.203e-03         -0.2542
 164       2.500e+00      -8.176e+00       6.086e-01          -0.181           0.009           0.983       1.005e-02         -0.3084
 165       2.559e+00      -8.176e+00       6.178e-01          -0.132           0.023           0.991       1.166e-02         -0.3454
 166       2.626e+00      -8.175e+00       6.253e-01          -0.090           0.033           0.995       1.301e-02         -0.3716
 167       2.701e+00      -8.175e+00       6.303e-01          -0.047           0.043           0.998       1.405e-02         -0.3908
 168       2.780e+00      -8.175e+00       6.322e-01          -0.001           0.053           0.999       1.477e-02         -0.3952
 169       2.862e+00      -8.175e+00       6.300e-01           0.054           0.064           0.996       1.517e-02         -0.3589
 170       2.946e+00      -8.176e+00       6.239e-01           0.091           0.071           0.993       1.521e-02         -0.2896
 171       3.028e+00      -8.176e+00       6.152e-01           0.119           0.076           0.990       1.488e-02         -0.2159
 172       3.108e+00      -8.177e+00       6.050e-01           0.138           0.079           0.987       1.418e-02         -0.1430
 173       3.182e+00      -8.177e+00       5.942e-01           0.150           0.080           0.985       1.311e-02         -0.0725
 174       3.250e+00      -8.178e+00       5.839e-01           0.152           0.080           0.985       1.170e-02         -0.0080
 175       3.309e+00      -8.179e+00       5.749e-01           0.148           0.080           0.986       9.988e-03          0.0468
 176       3.358e+00      -8.179e+00       5.678e-01           0.139           0.079           0.987       8.025e-03          0.0899
 177       3.395e+00      -8.179e+00       5.627e-01           0.126           0.078           0.989       5.868e-03          0.1244
 178       3.421e+00      -8.180e+00       5.595e-01           0.116           0.077           0.990       3.576e-03          0.1619
 179       3.434e+00      -8.180e+00       5.580e-01           0.112           0.077           0.991       1.201e-03          0.1872
Strip 5
 180       3.417e+00      -7.973e+00       5.437e-01          -0.036          -0.071          -0.997       1.583e-03          0.2255
 181       3.403e+00      -7.973e+00       5.440e-01          -0.020          -0.070          -0.997       4.709e-03          0.2342
 182       3.376e+00      -7.973e+00       5.440e-01           0.016          -0.066          -0.998       7.719e-03          0.2396
 183       3.337e+00      -7.973e+00       5.423e-01           0.059          -0.062          -0.996       1.056e-02          0.2173
 184       3.286e+00      -7.974e+00       5.386e-01           0.086          -0.059          -0.995       1.315e-02          0.1715
 185       3.225e+00      -7.974e+00       5.327e-01           0.104          -0.057          -0.993       1.542e-02          0.1179
 186       3.155e+00      -7.974e+00       5.250e-01           0.114          -0.056          -0.992       1.731e-02          0.0559
 187       3.077e+00      -7.975e+00       5.162e-01           0.114          -0.056          -0.992       1.876e-02         -0.0120
 188       2.995e+00      -7.976e+00       5.071e-01           0.105          -0.057          -0.993       1.973e-02         -0.0826
 189       2.909e+00      -7.976e+00       4.989e-01           0.087          -0.060          -0.994       2.020e-02         -0.1540
 190       2.822e+00      -7.976e+00       4.925e-01           0.059          -0.066          -0.996       2.016e-02         -0.2212
 191       2.736e+00      -7.977e+00       4.894e-01           0.014          -0.075          -0.997       1.963e-02         -0.2583
 192       2.654e+00      -7.977e+00       4.897e-01          -0.023          -0.083          -0.996       1.866e-02         -0.2583
 193       2.577e+00      -7.976e+00       4.927e-01          -0.055          -0.090          -0.994       1.725e-02         -0.2467
 194       2.506e+00      -7.976e+00       4.976e-01          -0.086          -0.098          -0.991       1.542e-02         -0.2317
 195       2.445e+00      -7.976e+00       5.039e-01          -0.122          -0.107          -0.987       1.322e-02         -0.2144
 196       2.394e+00      -7.975e+00       5.113e-01          -0.170          -0.119          -0.978       1.072e-02         -0.1950
 197       2.355e+00      -7.975e+00       5.195e-01          -0.247          -0.139          -0.959       7.997e-03         -0.1740
 198       2.328e+00      -7.974e+00       5.284e-01          -0.414          -0.182          -0.892       5.227e-03         -0.1220
 199       2.314e+00      -7.974e+00       5.390e-01          -0.839          -0.275          -0.470       3.261e-03          0.6140
 200       2.314e+00      -7.973e+00       5.509e-01          -0.845          -0.212           0.491       3.308e-03          0.6543
 201       2.328e+00      -7.972e+00       5.627e-01          -0.489          -0.084           0.868       5.460e-03         -0.0175
 202       2.355e+00      -7.972e+00       5.742e-01          -0.329          -0.034           0.944       8.205e-03         -0.1765
 203       2.394e+00      -7.971e+00       5.857e-01          -0.241          -0.008           0.970       1.087e-02         -0.2631
 204       2.445e+00      -7.970e+00       5.966e-01          -0.181           0.009           0.983       1.332e-02         -0.3199
 205       2.506e+00      -7.970e+00       6.062e-01          -0.132           0.023           0.991       1.546e-02         -0.3608
 206       2.577e+00      -7.969e+00       6.139e-01          -0.090           0.033           0.995       1.725e-02         -0.3915
 207       2.654e+00      -7.969e+00       6.192e-01          -0.047           0.043           0.998       1.863e-02         -0.4150
 208       2.736e+00      -7.969e+00       6.211e-01          -0.001           0.053           0.999       1.958e-02         -0.4222
 209       2.822e+00      -7.969e+00       6.188e-01           0.054           0.064           0.996       2.011e-02         -0.3860
 210       2.909e+00      -7.969e+00       6.125e-01           0.091           0.071           0.993       2.017e-02         -0.3145
 211       2.995e+00      -7.970e+00       6.035e-01           0.119           0.076           0.990       1.973e-02         -0.2370
 212       3.077e+00      -7.971e+00       5.928e-01           0.138           0.079           0.987       1.880e-02         -0.1594
 213       3.155e+00      -7.971e+00       5.816e-01           0.150           0.080           0.985       1.738e-02         -0.0842
 214       3.225e+00      -7.972e+00       5.709e-01           0.152           0.080           0.985       1.551e-02         -0.0153
 215       3.286e+00      -7.972e+00       5.616e-01           0.148           0.080           0.986       1.324e-02          0.0430
 216       3.337e+00      -7.973e+00       5.541e-01           0.139           0.079           0.987       1.064e-02          0.0889
 217       3.376e+00      -7.973e+00       5.488e-01           0.126           0.078           0.989       7.781e-03          0.1253
 218       3.403e+00      -7.973e+00       5.455e-01           0.116           0.077           0.990       4.741e-03          0.1645
 219       3.417e+00      -7.973e+00       5.440e-01           0.112           0.077           0.991       1.593e-03          0.1906
Strip 6
 220       3.395e+00      -7.718e+00       5.263e-01          -0.036          -0.071          -0.997       2.006e-03          0.2259
 221       3.381e+00      -7.718e+00       5.266e-01          -0.020          -0.070          -0.997       5.966e-03          0.2348
 222       3.353e+00      -7.718e+00       5.266e-01           0.016          -0.066          -0.998       9.778e-03          0.2405
 223       3.312e+00      -7.718e+00       5.249e-01           0.059          -0.062          -0.996       1.337e-02          0.2183
 224       3.258e+00      -7.718e+00       5.209e-01           0.086          -0.059          -0.995       1.665e-02          0.1723
 225       3.194e+00      -7.719e+00       5.147e-01           0.104          -0.057          -0.993       1.954e-02          0.1184
 226       3.120e+00      -7.719e+00       5.067e-01           0.114          -0.056          -0.992       2.193e-02          0.0558
 227       3.039e+00      -7.720e+00       4.974e-01           0.114          -0.056          -0.992       2.377e-02         -0.0128
 228       2.953e+00      -7.720e+00       4.880e-01           0.105          -0.057          -0.993       2.499e-02         -0.0842
 229       2.863e+00      -7.721e+00       4.793e-01           0.087          -0.060          -0.994       2.559e-02         -0.1561
 230       2.772e+00      -7.721e+00       4.727e-01           0.059          -0.066          -0.996       2.554e-02         -0.2235
 231       2.683e+00      -7.721e+00       4.694e-01           0.014          -0.075          -0.997       2.487e-02         -0.2602
 232       2.596e+00      -7.721e+00       4.698e-01          -0.023          -0.083          -0.996       2.364e-02         -0.2593
 233       2.515e+00      -7.721e+00       4.728e-01          -0.055          -0.090          -0.994       2.185e-02         -0.2463
 234       2.442e+00      -7.721e+00       4.780e-01          -0.086          -0.098          -0.991       1.953e-02         -0.2299
 235       2.377e+00      -7.720e+00       4.846e-01          -0.122          -0.107          -0.987       1.675e-02         -0.2113
 236       2.324e+00      -7.720e+00       4.924e-01          -0.170          -0.119          -0.978       1.358e-02         -0.1902
 237       2.283e+00      -7.719e+00       5.009e-01          -0.247          -0.139          -0.959       1.013e-02         -0.1664
 238       2.255e+00      -7.719e+00       5.103e-01          -0.414          -0.182          -0.892       6.625e-03         -0.1096
 239       2.240e+00      -7.718e+00       5.213e-01          -0.838          -0.275          -0.471       4.133e-03          0.6240
 240       2.240e+00      -7.718e+00       5.338e-01          -0.845          -0.212           0.490       4.189e-03          0.6485
 241       2.255e+00      -7.717e+00       5.462e-01          -0.489          -0.084           0.868       6.914e-03         -0.0274
 242       2.283e+00      -7.716e+00       5.583e-01          -0.330          -0.034           0.944       1.039e-02         -0.1847
 243       2.324e+00      -7.716e+00       5.703e-01          -0.241          -0.008           0.970       1.377e-02         -0.2712
 244       2.377e+00      -7.715e+00       5.817e-01          -0.181           0.009           0.983       1.687e-02         -0.3287
 245       2.442e+00      -7.715e+00       5.917e-01          -0.132           0.022           0.991       1.959e-02         -0.3707
 246       2.515e+00      -7.714e+00       5.999e-01          -0.090           0.033           0.995       2.185e-02         -0.4031
 247       2.596e+00      -7.714e+00       6.054e-01          -0.048           0.043           0.998       2.360e-02         -0.4283
 248       2.683e+00      -7.714e+00       6.074e-01          -0.001           0.053           0.999       2.481e-02         -0.4369
 249       2.772e+00      -7.714e+00       6.050e-01           0.054           0.064           0.996       2.547e-02         -0.4011
 250       2.863e+00      -7.714e+00       5.984e-01           0.091           0.071           0.993       2.555e-02         -0.3287
 251       2.953e+00      -7.715e+00       5.889e-01           0.119           0.076           0.990       2.500e-02         -0.2497
 252       3.039e+00      -7.715e+00       5.777e-01           0.138           0.079           0.987       2.382e-02         -0.1700
 253       3.120e+00      -7.716e+00       5.660e-01           0.150           0.080           0.985       2.202e-02         -0.0925
 254       3.194e+00      -7.717e+00       5.548e-01           0.152           0.080           0.985       1.965e-02         -0.0214
 255       3.258e+00      -7.717e+00       5.450e-01           0.148           0.080           0.986       1.678e-02          0.0388
 256       3.312e+00      -7.717e+00       5.372e-01           0.139           0.079           0.987       1.348e-02          0.0862
 257       3.353e+00      -7.718e+00       5.317e-01           0.126           0.078           0.989       9.858e-03          0.1238
 258       3.381e+00      -7.718e+00       5.282e-01           0.116           0.077           0.990       6.006e-03          0.1639
 259       3.395e+00      -7.718e+00       5.266e-01           0.112           0.077           0.991       2.018e-03          0.1907
Strip 7
 260       3.370e+00      -7.415e+00       5.056e-01          -0.036          -0.071          -0.997       2.467e-03          0.2255
 261       3.355e+00      -7.415e+00       5.060e-01          -0.020          -0.070          -0.997       7.336e-03          0.2346
 262       3.325e+00      -7.415e+00       5.059e-01           0.016          -0.066          -0.998       1.202e-02          0.2405
 263       3.282e+00      -7.415e+00       5.042e-01           0.059          -0.062          -0.996       1.644e-02          0.2183
 264       3.225e+00      -7.415e+00       5.000e-01           0.086          -0.059          -0.995       2.048e-02          0.1724
 265       3.158e+00      -7.416e+00       4.935e-01           0.104          -0.057          -0.993       2.402e-02          0.1184
 266       3.080e+00      -7.416e+00       4.850e-01           0.114          -0.056          -0.992       2.697e-02          0.0557
 267       2.995e+00      -7.417e+00       4.752e-01           0.114          -0.056          -0.992       2.922e-02         -0.0130
 268       2.904e+00      -7.417e+00       4.653e-01           0.105          -0.057          -0.993       3.073e-02         -0.0845
 269       2.809e+00      -7.417e+00       4.562e-01           0.087          -0.060          -0.994       3.146e-02         -0.1563
 270       2.713e+00      -7.418e+00       4.491e-01           0.059          -0.066          -0.996       3.140e-02         -0.2236
 271       2.619e+00      -7.418e+00       4.457e-01           0.014          -0.075          -0.997       3.059e-02         -0.2599
 272       2.528e+00      -7.418e+00       4.461e-01          -0.023          -0.083          -0.996       2.907e-02         -0.2584
 273       2.442e+00      -7.418e+00       4.493e-01          -0.055          -0.090          -0.994       2.687e-02         -0.2449
 274       2.365e+00      -7.418e+00       4.547e-01          -0.086          -0.098          -0.991       2.402e-02         -0.2278
 275       2.297e+00      -7.417e+00       4.617e-01          -0.122          -0.107          -0.987       2.061e-02         -0.2085
 276       2.241e+00      -7.417e+00       4.699e-01          -0.170          -0.119          -0.978       1.671e-02         -0.1865
 277       2.197e+00      -7.416e+00       4.789e-01          -0.247          -0.139          -0.959       1.247e-02         -0.1609
 278       2.168e+00      -7.416e+00       4.888e-01          -0.414          -0.182          -0.892       8.151e-03         -0.1006
 279       2.153e+00      -7.415e+00       5.004e-01          -0.838          -0.275          -0.472       5.085e-03          0.6307
 280       2.153e+00      -7.415e+00       5.136e-01          -0.846          -0.212           0.490       5.148e-03          0.6435
 281       2.168e+00      -7.414e+00       5.266e-01          -0.490          -0.084           0.868       8.497e-03         -0.0357
 282       2.197e+00      -7.413e+00       5.394e-01          -0.330          -0.034           0.943       1.277e-02         -0.1912
 283       2.241e+00      -7.413e+00       5.521e-01          -0.241          -0.008           0.970       1.693e-02         -0.2773
 284       2.297e+00      -7.412e+00       5.640e-01          -0.181           0.009           0.983       2.074e-02         -0.3347
 285       2.365e+00      -7.412e+00       5.746e-01          -0.132           0.022           0.991       2.408e-02         -0.3771
 286       2.442e+00      -7.411e+00       5.832e-01          -0.090           0.033           0.995       2.687e-02         -0.4101
 287       2.528e+00      -7.411e+00       5.890e-01          -0.048           0.043           0.998       2.902e-02         -0.4359
 288       2.619e+00      -7.411e+00       5.911e-01          -0.001           0.053           0.999       3.051e-02         -0.4450
 289       2.713e+00      -7.411e+00       5.886e-01           0.054           0.064           0.996       3.133e-02         -0.4093
 290       2.809e+00      -7.411e+00       5.816e-01           0.091           0.071           0.993       3.142e-02         -0.3365
 291       2.904e+00      -7.412e+00       5.716e-01           0.119           0.076           0.990       3.075e-02         -0.2568
 292       2.995e+00      -7.412e+00       5.599e-01           0.138           0.079           0.987       2.929e-02         -0.1761
 293       3.080e+00      -7.413e+00       5.475e-01           0.150           0.080           0.985       2.709e-02         -0.0975
 294       3.158e+00      -7.414e+00       5.357e-01           0.152           0.080           0.985       2.417e-02         -0.0254
 295       3.225e+00      -7.414e+00       5.254e-01           0.148           0.080           0.986       2.063e-02          0.0357
 296       3.282e+00      -7.415e+00       5.172e-01           0.139           0.079           0.987       1.658e-02          0.0838
 297       3.325e+00      -7.415e+00       5.113e-01           0.126           0.078           0.989       1.212e-02          0.1221
 298       3.355e+00      -7.415e+00       5.077e-01           0.116           0.077           0.990       7.386e-03          0.1629
 299       3.370e+00      -7.415e+00       5.059e-01           0.112           0.077           0.991       2.481e-03          0.1900
Strip 8
 300       3.340e+00      -7.066e+00       4.819e-01          -0.036          -0.071          -0.997       2.969e-03          0.2251
 301       3.324e+00      -7.066e+00       4.823e-01          -0.020          -0.070          -0.997       8.830e-03          0.2343
 302       3.293e+00      -7.066e+00       4.822e-01           0.016          -0.066          -0.998       1.447e-02          0.2403
 303       3.247e+00      -7.066e+00       4.803e-01           0.059          -0.062          -0.996       1.979e-02          0.2182
 304       3.187e+00      -7.067e+00       4.759e-01           0.086          -0.059          -0.995       2.465e-02          0.1724
 305       3.116e+00      -7.067e+00       4.690e-01           0.104          -0.057          -0.993       2.891e-02          0.1184
 306       3.034e+00      -7.067e+00       4.600e-01           0.114          -0.056          -0.992       3.246e-02          0.0558
 307       2.943e+00      -7.068e+00       4.497e-01           0.114          -0.056          -0.992       3.517e-02         -0.0128
 308       2.847e+00      -7.068e+00       4.391e-01           0.105          -0.057          -0.993       3.699e-02         -0.0843
 309       2.747e+00      -7.069e+00       4.295e-01           0.087          -0.060          -0.994       3.786e-02         -0.1560
 310       2.645e+00      -7.069e+00       4.221e-01           0.059          -0.066          -0.996       3.779e-02         -0.2231
 311       2.545e+00      -7.069e+00       4.184e-01           0.014          -0.075          -0.997       3.681e-02         -0.2591
 312       2.449e+00      -7.069e+00       4.188e-01          -0.023          -0.083          -0.996       3.499e-02         -0.2575
 313       2.358e+00      -7.069e+00       4.222e-01          -0.055          -0.090          -0.994       3.234e-02         -0.2437
 314       2.276e+00      -7.069e+00       4.280e-01          -0.086          -0.098          -0.991       2.892e-02         -0.2262
 315       2.205e+00      -7.068e+00       4.354e-01          -0.122          -0.107          -0.987       2.480e-02         -0.2065
 316       2.145e+00      -7.068e+00       4.440e-01          -0.170          -0.119          -0.978       2.012e-02         -0.1839
 317       2.099e+00      -7.068e+00       4.536e-01          -0.247          -0.139          -0.959       1.501e-02         -0.1573
 318       2.068e+00      -7.067e+00       4.640e-01          -0.413          -0.182          -0.892       9.816e-03         -0.0946
 319       2.052e+00      -7.067e+00       4.764e-01          -0.837          -0.275          -0.473       6.124e-03          0.6346
 320       2.052e+00      -7.066e+00       4.903e-01          -0.846          -0.212           0.489       6.193e-03          0.6403
 321       2.068e+00      -7.065e+00       5.041e-01          -0.490          -0.084           0.868       1.022e-02         -0.0413
 322       2.099e+00      -7.065e+00       5.176e-01          -0.330          -0.034           0.943       1.537e-02         -0.1956
 323       2.145e+00      -7.064e+00       5.310e-01          -0.241          -0.008           0.970       2.037e-02         -0.2813
 324       2.205e+00      -7.064e+00       5.437e-01          -0.181           0.009           0.983       2.496e-02         -0.3386
 325       2.276e+00      -7.063e+00       5.549e-01          -0.132           0.022           0.991       2.898e-02         -0.3810
 326       2.358e+00      -7.063e+00       5.640e-01          -0.090           0.033           0.995       3.233e-02         -0.4142
 327       2.449e+00      -7.063e+00       5.701e-01          -0.048           0.043           0.998       3.493e-02         -0.4403
 328       2.545e+00      -7.062e+00       5.724e-01          -0.001           0.053           0.999       3.672e-02         -0.4495
 329       2.645e+00      -7.063e+00       5.697e-01           0.054           0.064           0.996       3.771e-02         -0.4138
 330       2.747e+00      -7.063e+00       5.623e-01           0.091           0.071           0.993       3.782e-02         -0.3408
 331       2.847e+00      -7.063e+00       5.518e-01           0.119           0.076           0.990       3.701e-02         -0.2607
 332       2.943e+00      -7.064e+00       5.393e-01           0.138           0.079           0.987       3.526e-02         -0.1796
 333       3.034e+00      -7.064e+00       5.262e-01           0.150           0.080           0.985       3.261e-02         -0.1004
 334       3.116e+00      -7.065e+00       5.137e-01           0.152           0.080           0.985       2.910e-02         -0.0279
 335       3.187e+00      -7.065e+00       5.028e-01           0.148           0.080           0.986       2.484e-02          0.0338
 336       3.247e+00      -7.066e+00       4.941e-01           0.139           0.079           0.987       1.996e-02          0.0823
 337       3.293e+00      -7.066e+00       4.879e-01           0.126           0.078           0.989       1.459e-02          0.1209
 338       3.324e+00      -7.066e+00       4.840e-01           0.116           0.077           0.990       8.891e-03          0.1620
 339       3.340e+00      -7.066e+00       4.822e-01           0.112           0.077           0.991       2.987e-03          0.1893
Strip 9
 340       3.307e+00      -6.674e+00       4.552e-01          -0.036          -0.071          -0.997       3.515e-03          0.2248
 341       3.290e+00      -6.674e+00       4.556e-01          -0.020          -0.070          -0.997       1.045e-02          0.2341
 342       3.257e+00      -6.674e+00       4.555e-01           0.016          -0.066          -0.998       1.713e-02          0.2402
 343       3.208e+00      -6.674e+00       4.535e-01           0.059          -0.062          -0.996       2.343e-02          0.2182
 344       3.145e+00      -6.674e+00       4.488e-01           0.086          -0.059          -0.995       2.918e-02          0.1724
 345       3.068e+00      -6.675e+00       4.415e-01           0.104          -0.057          -0.993       3.422e-02          0.1185
 346       2.981e+00      -6.675e+00       4.319e-01           0.114          -0.056          -0.992       3.842e-02          0.0559
 347       2.885e+00      -6.675e+00       4.209e-01           0.114          -0.056          -0.992       4.163e-02         -0.0126
 348       2.783e+00      -6.676e+00       4.097e-01           0.105          -0.057          -0.993       4.378e-02         -0.0840
 349       2.677e+00      -6.676e+00       3.995e-01           0.087          -0.060          -0.994       4.482e-02         -0.1556
 350       2.569e+00      -6.677e+00       3.916e-01           0.059          -0.066          -0.996       4.474e-02         -0.2226
 351       2.462e+00      -6.677e+00       3.877e-01           0.014          -0.075          -0.997       4.358e-02         -0.2585
 352       2.360e+00      -6.677e+00       3.881e-01          -0.023          -0.083          -0.996       4.142e-02         -0.2567
 353       2.264e+00      -6.677e+00       3.918e-01          -0.055          -0.090          -0.994       3.829e-02         -0.2428
 354       2.177e+00      -6.676e+00       3.978e-01          -0.086          -0.098          -0.991       3.424e-02         -0.2252
 355       2.101e+00      -6.676e+00       4.057e-01          -0.122          -0.107          -0.987       2.937e-02         -0.2054
 356       2.038e+00      -6.676e+00       4.149e-01          -0.170          -0.119          -0.978       2.382e-02         -0.1825
 357       1.989e+00      -6.675e+00       4.251e-01          -0.246          -0.139          -0.959       1.777e-02         -0.1553
 358       1.955e+00      -6.675e+00       4.362e-01          -0.413          -0.182          -0.892       1.163e-02         -0.0915
 359       1.939e+00      -6.674e+00       4.493e-01          -0.837          -0.275          -0.474       7.254e-03          0.6363
 360       1.939e+00      -6.674e+00       4.641e-01          -0.847          -0.212           0.488       7.327e-03          0.6390
 361       1.955e+00      -6.673e+00       4.787e-01          -0.490          -0.084           0.868       1.209e-02         -0.0442
 362       1.989e+00      -6.673e+00       4.931e-01          -0.330          -0.034           0.943       1.818e-02         -0.1980
 363       2.038e+00      -6.672e+00       5.074e-01          -0.242          -0.008           0.970       2.411e-02         -0.2835
 364       2.101e+00      -6.672e+00       5.209e-01          -0.181           0.009           0.983       2.954e-02         -0.3407
 365       2.177e+00      -6.671e+00       5.328e-01          -0.132           0.022           0.991       3.430e-02         -0.3831
 366       2.264e+00      -6.671e+00       5.424e-01          -0.090           0.033           0.995       3.827e-02         -0.4164
 367       2.360e+00      -6.671e+00       5.489e-01          -0.048           0.043           0.998       4.134e-02         -0.4426
 368       2.462e+00      -6.670e+00       5.514e-01          -0.001           0.053           0.999       4.347e-02         -0.4519
 369       2.569e+00      -6.671e+00       5.485e-01           0.054           0.064           0.996       4.464e-02         -0.4162
 370       2.677e+00      -6.671e+00       5.407e-01           0.091           0.071           0.993       4.478e-02         -0.3430
 371       2.783e+00      -6.671e+00       5.294e-01           0.119           0.076           0.990       4.381e-02         -0.2627
 372       2.885e+00      -6.672e+00       5.162e-01           0.138           0.079           0.987       4.175e-02         -0.1814
 373       2.981e+00      -6.672e+00       5.022e-01           0.150           0.080           0.986       3.860e-02         -0.1020
 374       3.068e+00      -6.673e+00       4.889e-01           0.152           0.080           0.985       3.445e-02         -0.0292
 375       3.145e+00      -6.673e+00       4.774e-01           0.148           0.080           0.986       2.940e-02          0.0326
 376       3.208e+00      -6.674e+00       4.681e-01           0.139           0.079           0.987       2.363e-02          0.0814
 377       3.257e+00      -6.674e+00       4.615e-01           0.126           0.078           0.989       1.727e-02          0.1202
 378       3.290e+00      -6.674e+00       4.574e-01           0.116           0.077           0.990       1.052e-02          0.1615
 379       3.307e+00      -6.674e+00       4.555e-01           0.112           0.077           0.991       3.536e-03          0.1888
Strip 10
 380       3.270e+00      -6.241e+00       4.256e-01          -0.036          -0.071          -0.997       4.104e-03          0.2246
 381       3.252e+00      -6.241e+00       4.260e-01          -0.020          -0.070          -0.997       1.220e-02          0.2340
 382       3.217e+00      -6.241e+00       4.260e-01           0.016          -0.066          -0.998       2.000e-02          0.2402
 383       3.165e+00      -6.241e+00       4.238e-01           0.059          -0.062          -0.996       2.735e-02          0.2182
 384       3.097e+00      -6.241e+00       4.188e-01           0.086          -0.059          -0.995       3.406e-02          0.1725
 385       3.016e+00      -6.241e+00       4.110e-01           0.104          -0.057          -0.993       3.995e-02          0.1186
 386       2.923e+00      -6.242e+00       4.008e-01           0.114          -0.056          -0.992       4.485e-02          0.0560
 387       2.821e+00      -6.242e+00       3.892e-01           0.114          -0.056          -0.992       4.860e-02         -0.0125
 388       2.712e+00      -6.242e+00       3.772e-01           0.105          -0.057          -0.993       5.111e-02         -0.0838
 389       2.599e+00      -6.243e+00       3.663e-01           0.087          -0.060          -0.994       5.232e-02         -0.1554
 390       2.484e+00      -6.243e+00       3.579e-01           0.059          -0.066          -0.996       5.222e-02         -0.2223
 391       2.371e+00      -6.243e+00       3.537e-01           0.014          -0.075          -0.997       5.087e-02         -0.2582
 392       2.262e+00      -6.243e+00       3.542e-01          -0.023          -0.083          -0.996       4.836e-02         -0.2564
 393       2.160e+00      -6.243e+00       3.581e-01          -0.055          -0.090          -0.994       4.470e-02         -0.2424
 394       2.067e+00      -6.243e+00       3.646e-01          -0.086          -0.098          -0.991       3.997e-02         -0.2248
 395       1.986e+00      -6.243e+00       3.730e-01          -0.122          -0.107          -0.987       3.429e-02         -0.2050
 396       1.919e+00      -6.242e+00       3.828e-01          -0.170          -0.119          -0.978       2.781e-02         -0.1820
 397       1.867e+00      -6.242e+00       3.936e-01          -0.246          -0.139          -0.959       2.076e-02         -0.1546
 398       1.831e+00      -6.241e+00       4.054e-01          -0.413          -0.182          -0.892       1.358e-02         -0.0907
 399       1.813e+00      -6.241e+00       4.194e-01          -0.836          -0.275          -0.475       8.473e-03          0.6361
 400       1.813e+00      -6.240e+00       4.351e-01          -0.847          -0.213           0.487       8.550e-03          0.6394
 401       1.831e+00      -6.240e+00       4.507e-01          -0.490          -0.085           0.867       1.411e-02         -0.0448
 402       1.867e+00      -6.239e+00       4.660e-01          -0.330          -0.034           0.943       2.122e-02         -0.1985
 403       1.919e+00      -6.239e+00       4.812e-01          -0.242          -0.008           0.970       2.813e-02         -0.2841
 404       1.986e+00      -6.238e+00       4.956e-01          -0.181           0.009           0.983       3.448e-02         -0.3415
 405       2.067e+00      -6.238e+00       5.083e-01          -0.132           0.022           0.991       4.004e-02         -0.3840
 406       2.160e+00      -6.238e+00       5.186e-01          -0.090           0.033           0.995       4.467e-02         -0.4173
 407       2.262e+00      -6.237e+00       5.255e-01          -0.048           0.043           0.998       4.826e-02         -0.4436
 408       2.371e+00      -6.237e+00       5.281e-01          -0.001           0.053           0.999       5.074e-02         -0.4530
 409       2.484e+00      -6.237e+00       5.250e-01           0.054           0.064           0.996       5.212e-02         -0.4172
 410       2.599e+00      -6.238e+00       5.167e-01           0.091           0.071           0.993       5.228e-02         -0.3441
 411       2.712e+00      -6.238e+00       5.047e-01           0.119           0.076           0.990       5.116e-02         -0.2637
 412       2.821e+00      -6.239e+00       4.906e-01           0.138           0.079           0.987       4.874e-02         -0.1822
 413       2.923e+00      -6.239e+00       4.758e-01           0.150           0.080           0.986       4.507e-02         -0.1028
 414       3.016e+00      -6.240e+00       4.616e-01           0.152           0.080           0.985       4.022e-02         -0.0299
 415       3.097e+00      -6.240e+00       4.493e-01           0.148           0.080           0.986       3.433e-02          0.0321
 416       3.165e+00      -6.240e+00       4.394e-01           0.139           0.079           0.987       2.758e-02          0.0809
 417       3.217e+00      -6.241e+00       4.324e-01           0.126           0.078           0.989       2.017e-02          0.1199
 418       3.252e+00      -6.241e+00       4.280e-01           0.116           0.077           0.990       1.229e-02          0.1612
 419       3.270e+00      -6.241e+00       4.260e-01           0.112           0.077           0.991       4.128e-03          0.1885
Strip 11
 420       3.230e+00      -5.769e+00       3.935e-01          -0.036          -0.071          -0.997       4.733e-03          0.2246
 421       3.211e+00      -5.769e+00       3.939e-01          -0.020          -0.070          -0.997       1.408e-02          0.2340
 422       3.173e+00      -5.769e+00       3.938e-01           0.016          -0.066          -0.998       2.307e-02          0.2402
 423       3.118e+00      -5.769e+00       3.915e-01           0.059          -0.062          -0.996       3.155e-02          0.2182
 424       3.046e+00      -5.769e+00       3.862e-01           0.086          -0.059          -0.995       3.929e-02          0.1725
 425       2.959e+00      -5.769e+00       3.779e-01           0.104          -0.057          -0.993       4.608e-02          0.1187
 426       2.861e+00      -5.770e+00       3.670e-01           0.114          -0.056          -0.992       5.173e-02          0.0561
 427       2.752e+00      -5.770e+00       3.546e-01           0.114          -0.056          -0.992       5.605e-02         -0.0125
 428       2.635e+00      -5.770e+00       3.418e-01           0.105          -0.057          -0.993       5.895e-02         -0.0838
 429       2.515e+00      -5.771e+00       3.302e-01           0.087          -0.060          -0.994       6.034e-02         -0.1554
 430       2.392e+00      -5.771e+00       3.212e-01           0.059          -0.066          -0.996       6.023e-02         -0.2223
 431       2.272e+00      -5.771e+00       3.168e-01           0.014          -0.075          -0.997       5.868e-02         -0.2582
 432       2.155e+00      -5.771e+00       3.173e-01          -0.023          -0.083          -0.996       5.578e-02         -0.2564
 433       2.046e+00      -5.771e+00       3.215e-01          -0.055          -0.090          -0.994       5.157e-02         -0.2424
 434       1.947e+00      -5.771e+00       3.284e-01          -0.086          -0.098          -0.991       4.611e-02         -0.2249
 435       1.861e+00      -5.771e+00       3.373e-01          -0.122          -0.107          -0.987       3.956e-02         -0.2052
 436       1.789e+00      -5.770e+00       3.478e-01          -0.170          -0.119          -0.978       3.209e-02         -0.1824
 437       1.734e+00      -5.770e+00       3.593e-01          -0.246          -0.139          -0.959       2.395e-02         -0.1553
 438       1.696e+00      -5.770e+00       3.719e-01          -0.413          -0.182          -0.893       1.567e-02         -0.0918
 439       1.677e+00      -5.769e+00       3.868e-01          -0.836          -0.275          -0.475       9.779e-03          0.6343
 440       1.677e+00      -5.769e+00       4.036e-01          -0.848          -0.213           0.486       9.856e-03          0.6412
 441       1.696e+00      -5.768e+00       4.202e-01          -0.491          -0.085           0.867       1.627e-02         -0.0434
 442       1.734e+00      -5.768e+00       4.366e-01          -0.330          -0.034           0.943       2.446e-02         -0.1978
 443       1.789e+00      -5.767e+00       4.528e-01          -0.242          -0.008           0.970       3.244e-02         -0.2836
 444       1.861e+00      -5.767e+00       4.681e-01          -0.181           0.009           0.983       3.976e-02         -0.3412
 445       1.947e+00      -5.766e+00       4.816e-01          -0.132           0.022           0.991       4.617e-02         -0.3839
 446       2.046e+00      -5.766e+00       4.926e-01          -0.090           0.033           0.995       5.152e-02         -0.4174
 447       2.155e+00      -5.766e+00       5.000e-01          -0.048           0.043           0.998       5.567e-02         -0.4437
 448       2.272e+00      -5.766e+00       5.027e-01          -0.001           0.053           0.999       5.853e-02         -0.4532
 449       2.392e+00      -5.766e+00       4.995e-01           0.054           0.064           0.996       6.012e-02         -0.4174
 450       2.515e+00      -5.766e+00       4.906e-01           0.091           0.071           0.993       6.030e-02         -0.3443
 451       2.635e+00      -5.766e+00       4.778e-01           0.119           0.076           0.990       5.901e-02         -0.2639
 452       2.752e+00      -5.767e+00       4.628e-01           0.138           0.079           0.987       5.622e-02         -0.1825
 453       2.861e+00      -5.767e+00       4.470e-01           0.150           0.080           0.986       5.199e-02         -0.1031
 454       2.959e+00      -5.768e+00       4.318e-01           0.152           0.080           0.985       4.639e-02         -0.0301
 455       3.046e+00      -5.768e+00       4.187e-01           0.148           0.080           0.986       3.960e-02          0.0319
 456       3.118e+00      -5.768e+00       4.082e-01           0.139           0.079           0.987       3.182e-02          0.0807
 457       3.173e+00      -5.769e+00       4.007e-01           0.126           0.078           0.989       2.326e-02          0.1196
 458       3.211e+00      -5.769e+00       3.961e-01           0.116           0.077           0.990       1.417e-02          0.1611
 459       3.230e+00      -5.769e+00       3.938e-01           0.112           0.077           0.991       4.761e-03          0.1885
Strip 12
 460       3.187e+00      -5.261e+00       3.589e-01          -0.036          -0.071          -0.997       5.400e-03          0.2246
 461       3.167e+00      -5.261e+00       3.594e-01          -0.020          -0.070          -0.997       1.606e-02          0.2340
 462       3.126e+00      -5.261e+00       3.593e-01           0.016          -0.066          -0.998       2.632e-02          0.2403
 463       3.067e+00      -5.262e+00       3.568e-01           0.059          -0.062          -0.996       3.599e-02          0.2183
 464       2.991e+00      -5.262e+00       3.511e-01           0.086          -0.059          -0.995       4.482e-02          0.1725
 465       2.898e+00      -5.262e+00       3.423e-01           0.104          -0.057          -0.993       5.257e-02          0.1187
 466       2.793e+00      -5.262e+00       3.307e-01           0.114          -0.056          -0.992       5.901e-02          0.0561
 467       2.677e+00      -5.263e+00       3.174e-01           0.114          -0.056          -0.992       6.395e-02         -0.0125
 468       2.553e+00      -5.263e+00       3.038e-01           0.105          -0.057          -0.993       6.725e-02         -0.0838
 469       2.424e+00      -5.263e+00       2.914e-01           0.087          -0.060          -0.994       6.884e-02         -0.1555
 470       2.293e+00      -5.263e+00       2.818e-01           0.059          -0.066          -0.996       6.872e-02         -0.2225
 471       2.165e+00      -5.264e+00       2.771e-01           0.014          -0.075          -0.997       6.694e-02         -0.2584
 472       2.040e+00      -5.264e+00       2.776e-01          -0.023          -0.083          -0.996       6.364e-02         -0.2566
 473       1.924e+00      -5.263e+00       2.820e-01          -0.055          -0.090          -0.994       5.883e-02         -0.2428
 474       1.819e+00      -5.263e+00       2.894e-01          -0.086          -0.098          -0.991       5.261e-02         -0.2255
 475       1.727e+00      -5.263e+00       2.990e-01          -0.122          -0.107          -0.987       4.514e-02         -0.2059
 476       1.650e+00      -5.263e+00       3.101e-01          -0.170          -0.119          -0.978       3.661e-02         -0.1834
 477       1.591e+00      -5.262e+00       3.224e-01          -0.246          -0.139          -0.959       2.733e-02         -0.1568
 478       1.550e+00      -5.262e+00       3.359e-01          -0.412          -0.182          -0.893       1.789e-02         -0.0944
 479       1.530e+00      -5.262e+00       3.518e-01          -0.835          -0.274          -0.476       1.116e-02          0.6314
 480       1.530e+00      -5.261e+00       3.697e-01          -0.848          -0.213           0.485       1.124e-02          0.6443
 481       1.550e+00      -5.261e+00       3.874e-01          -0.491          -0.085           0.867       1.855e-02         -0.0404
 482       1.591e+00      -5.260e+00       4.049e-01          -0.330          -0.034           0.943       2.790e-02         -0.1958
 483       1.650e+00      -5.260e+00       4.222e-01          -0.242          -0.008           0.970       3.700e-02         -0.2822
 484       1.727e+00      -5.259e+00       4.385e-01          -0.181           0.009           0.983       4.535e-02         -0.3401
 485       1.819e+00      -5.259e+00       4.530e-01          -0.132           0.022           0.991       5.267e-02         -0.3830
 486       1.924e+00      -5.259e+00       4.647e-01          -0.090           0.033           0.995       5.878e-02         -0.4166
 487       2.040e+00      -5.259e+00       4.726e-01          -0.048           0.043           0.998       6.351e-02         -0.4432
 488       2.165e+00      -5.259e+00       4.755e-01          -0.001           0.053           0.999       6.678e-02         -0.4528
 489       2.293e+00      -5.259e+00       4.720e-01           0.054           0.064           0.996       6.859e-02         -0.4171
 490       2.424e+00      -5.259e+00       4.625e-01           0.091           0.071           0.993       6.880e-02         -0.3441
 491       2.553e+00      -5.259e+00       4.489e-01           0.119           0.076           0.990       6.733e-02         -0.2638
 492       2.677e+00      -5.260e+00       4.328e-01           0.138           0.079           0.987       6.415e-02         -0.1824
 493       2.793e+00      -5.260e+00       4.160e-01           0.150           0.080           0.986       5.932e-02         -0.1030
 494       2.898e+00      -5.260e+00       3.998e-01           0.152           0.080           0.985       5.293e-02         -0.0301
 495       2.991e+00      -5.261e+00       3.858e-01           0.148           0.080           0.986       4.518e-02          0.0318
 496       3.067e+00      -5.261e+00       3.746e-01           0.139           0.079           0.987       3.630e-02          0.0807
 497       3.126e+00      -5.261e+00       3.666e-01           0.126           0.078           0.989       2.654e-02          0.1196
 498       3.167e+00      -5.261e+00       3.616e-01           0.116           0.077           0.990       1.617e-02          0.1610
 499       3.187e+00      -5.261e+00       3.593e-01           0.112           0.077           0.991       5.432e-03          0.1885
Strip 13
 500       3.141e+00      -4.722e+00       3.221e-01          -0.036          -0.071          -0.997       6.099e-03          0.2247
 501       3.120e+00      -4.722e+00       3.226e-01          -0.020          -0.070          -0.997       1.814e-02          0.2340
 502       3.077e+00      -4.722e+00       3.225e-01           0.016          -0.066          -0.998       2.972e-02          0.2403
 503       3.014e+00      -4.722e+00       3.199e-01           0.059          -0.062          -0.996       4.064e-02          0.2184
 504       2.932e+00      -4.722e+00       3.138e-01           0.086          -0.059          -0.995       5.061e-02          0.1726
 505       2.833e+00      -4.722e+00       3.044e-01           0.104          -0.057          -0.993       5.936e-02          0.1186
 506       2.721e+00      -4.722e+00       2.920e-01           0.114          -0.056          -0.992       6.663e-02          0.0560
 507       2.597e+00      -4.723e+00       2.778e-01           0.114          -0.056          -0.992       7.221e-02         -0.0126
 508       2.465e+00      -4.723e+00       2.633e-01           0.105          -0.057          -0.993       7.594e-02         -0.0840
 509       2.327e+00      -4.723e+00       2.501e-01           0.087          -0.060          -0.994       7.774e-02         -0.1557
 510       2.188e+00      -4.723e+00       2.399e-01           0.059          -0.066          -0.996       7.760e-02         -0.2228
 511       2.051e+00      -4.723e+00       2.348e-01           0.014          -0.075          -0.997       7.560e-02         -0.2588
 512       1.918e+00      -4.723e+00       2.354e-01          -0.023          -0.083          -0.996       7.188e-02         -0.2572
 513       1.794e+00      -4.723e+00       2.401e-01          -0.055          -0.090          -0.994       6.645e-02         -0.2434
 514       1.682e+00      -4.723e+00       2.480e-01          -0.086          -0.098          -0.991       5.942e-02         -0.2263
 515       1.584e+00      -4.723e+00       2.582e-01          -0.122          -0.107          -0.987       5.098e-02         -0.2070
 516       1.502e+00      -4.723e+00       2.701e-01          -0.170          -0.119          -0.978       4.135e-02         -0.1849
 517       1.439e+00      -4.722e+00       2.832e-01          -0.246          -0.139          -0.959       3.087e-02         -0.1591
 518       1.396e+00      -4.722e+00       2.975e-01          -0.412          -0.182          -0.893       2.021e-02         -0.0985
 519       1.374e+00      -4.722e+00       3.145e-01          -0.835          -0.274          -0.477       1.261e-02          0.6274
 520       1.374e+00      -4.721e+00       3.336e-01          -0.849          -0.213           0.484       1.269e-02          0.6483
 521       1.396e+00      -4.721e+00       3.526e-01          -0.491          -0.085           0.867       2.094e-02         -0.0359
 522       1.439e+00      -4.721e+00       3.712e-01          -0.331          -0.034           0.943       3.150e-02         -0.1928
 523       1.502e+00      -4.720e+00       3.896e-01          -0.242          -0.008           0.970       4.177e-02         -0.2799
 524       1.584e+00      -4.720e+00       4.071e-01          -0.181           0.009           0.983       5.121e-02         -0.3382
 525       1.682e+00      -4.719e+00       4.225e-01          -0.132           0.022           0.991       5.947e-02         -0.3814
 526       1.794e+00      -4.719e+00       4.349e-01          -0.090           0.033           0.995       6.637e-02         -0.4153
 527       1.918e+00      -4.719e+00       4.434e-01          -0.048           0.043           0.998       7.171e-02         -0.4420
 528       2.051e+00      -4.719e+00       4.465e-01          -0.001           0.053           0.999       7.541e-02         -0.4518
 529       2.188e+00      -4.719e+00       4.428e-01           0.054           0.064           0.996       7.746e-02         -0.4163
 530       2.327e+00      -4.719e+00       4.327e-01           0.091           0.071           0.993       7.771e-02         -0.3434
 531       2.465e+00      -4.720e+00       4.181e-01           0.119           0.076           0.990       7.604e-02         -0.2633
 532       2.597e+00      -4.720e+00       4.010e-01           0.138           0.079           0.987       7.245e-02         -0.1820
 533       2.721e+00      -4.720e+00       3.830e-01           0.150           0.080           0.986       6.699e-02         -0.1027
 534       2.833e+00      -4.721e+00       3.658e-01           0.152           0.080           0.985       5.978e-02         -0.0299
 535       2.932e+00      -4.721e+00       3.508e-01           0.148           0.080           0.986       5.103e-02          0.0320
 536       3.014e+00      -4.721e+00       3.389e-01           0.139           0.079           0.987       4.100e-02          0.0807
 537       3.077e+00      -4.721e+00       3.303e-01           0.126           0.078           0.989       2.998e-02          0.1197
 538       3.120e+00      -4.722e+00       3.250e-01           0.116           0.077           0.990       1.826e-02          0.1611
 539       3.141e+00      -4.722e+00       3.225e-01           0.112           0.077           0.991       6.135e-03          0.1885
Strip 14
 540       3.093e+00      -4.153e+00       2.833e-01          -0.036          -0.071          -0.997       6.821e-03          0.2247
 541       3.070e+00      -4.153e+00       2.839e-01          -0.020          -0.070          -0.997       2.028e-02          0.2341
 542       3.024e+00      -4.153e+00       2.838e-01           0.016          -0.066          -0.998       3.324e-02          0.2403
 543       2.957e+00      -4.153e+00       2.810e-01           0.059          -0.062          -0.996       4.545e-02          0.2184
 544       2.870e+00      -4.153e+00       2.745e-01           0.086          -0.059          -0.995       5.660e-02          0.1725
 545       2.765e+00      -4.153e+00       2.644e-01           0.104          -0.057          -0.993       6.639e-02          0.1186
 546       2.645e+00      -4.153e+00       2.512e-01           0.114          -0.056          -0.992       7.452e-02          0.0559
 547       2.513e+00      -4.153e+00       2.361e-01           0.114          -0.056          -0.992       8.075e-02         -0.0128
 548       2.372e+00      -4.154e+00       2.206e-01           0.105          -0.057          -0.993       8.492e-02         -0.0843
 549       2.225e+00      -4.154e+00       2.065e-01           0.087          -0.060          -0.994       8.694e-02         -0.1560
 550       2.077e+00      -4.154e+00       1.957e-01           0.059          -0.066          -0.996       8.678e-02         -0.2232
 551       1.931e+00      -4.154e+00       1.903e-01           0.014          -0.075          -0.997       8.455e-02         -0.2594
 552       1.790e+00      -4.154e+00       1.909e-01          -0.023          -0.083          -0.996       8.039e-02         -0.2578
 553       1.658e+00      -4.154e+00       1.959e-01          -0.055          -0.090          -0.994       7.432e-02         -0.2443
 554       1.538e+00      -4.154e+00       2.043e-01          -0.086          -0.098          -0.991       6.646e-02         -0.2274
 555       1.433e+00      -4.154e+00       2.152e-01          -0.122          -0.107          -0.987       5.702e-02         -0.2084
 556       1.346e+00      -4.154e+00       2.279e-01          -0.170          -0.119          -0.978       4.626e-02         -0.1868
 557       1.278e+00      -4.153e+00       2.419e-01          -0.246          -0.139          -0.959       3.454e-02         -0.1621
 558       1.232e+00      -4.153e+00       2.571e-01          -0.412          -0.182          -0.893       2.261e-02         -0.1035
 559       1.209e+00      -4.153e+00       2.752e-01          -0.835          -0.274          -0.478       1.411e-02          0.6225
 560       1.209e+00      -4.152e+00       2.956e-01          -0.849          -0.213           0.484       1.418e-02          0.6533
 561       1.232e+00      -4.152e+00       3.158e-01          -0.491          -0.085           0.867       2.340e-02         -0.0303
 562       1.278e+00      -4.152e+00       3.356e-01          -0.331          -0.034           0.943       3.522e-02         -0.1888
 563       1.346e+00      -4.151e+00       3.553e-01          -0.242          -0.008           0.970       4.671e-02         -0.2768
 564       1.433e+00      -4.151e+00       3.739e-01          -0.181           0.009           0.983       5.726e-02         -0.3357
 565       1.538e+00      -4.151e+00       3.903e-01          -0.132           0.022           0.991       6.651e-02         -0.3793
 566       1.658e+00      -4.151e+00       4.036e-01          -0.090           0.033           0.995       7.422e-02         -0.4135
 567       1.790e+00      -4.150e+00       4.126e-01          -0.048           0.043           0.998       8.020e-02         -0.4404
 568       1.931e+00      -4.150e+00       4.160e-01          -0.001           0.053           0.999       8.434e-02         -0.4504
 569       2.077e+00      -4.150e+00       4.120e-01           0.054           0.064           0.996       8.664e-02         -0.4151
[...]
1472       2.701e+00       8.183e+00       5.059e-01          -0.023           0.083          -0.996       1.407e-02         -0.2517
1473       2.626e+00       8.183e+00       5.087e-01          -0.055           0.090          -0.994       1.301e-02         -0.2429
1474       2.559e+00       8.182e+00       5.134e-01          -0.086           0.098          -0.991       1.163e-02         -0.2313
1475       2.500e+00       8.182e+00       5.195e-01          -0.122           0.107          -0.987       9.972e-03         -0.2174
1476       2.451e+00       8.182e+00       5.266e-01          -0.170           0.119          -0.978       8.085e-03         -0.2011
1477       2.413e+00       8.181e+00       5.345e-01          -0.247           0.139          -0.959       6.030e-03         -0.1839
1478       2.387e+00       8.181e+00       5.431e-01          -0.414           0.182          -0.892       3.941e-03         -0.1384
1479       2.374e+00       8.180e+00       5.532e-01          -0.839           0.275          -0.470       2.458e-03          0.6002
1480       2.374e+00       8.179e+00       5.647e-01          -0.845           0.211           0.492       2.496e-03          0.6579
1481       2.387e+00       8.178e+00       5.760e-01          -0.489           0.084           0.868       4.120e-03         -0.0091
1482       2.413e+00       8.178e+00       5.871e-01          -0.329           0.034           0.944       6.191e-03         -0.1689
1483       2.451e+00       8.177e+00       5.982e-01          -0.241           0.008           0.970       8.203e-03         -0.2542
1484       2.500e+00       8.176e+00       6.086e-01          -0.181          -0.009           0.983       1.005e-02         -0.3084
1485       2.559e+00       8.176e+00       6.178e-01          -0.132          -0.023           0.991       1.166e-02         -0.3454
1486       2.626e+00       8.175e+00       6.253e-01          -0.090          -0.033           0.995       1.301e-02         -0.3716
1487       2.701e+00       8.175e+00       6.303e-01          -0.047          -0.043           0.998       1.405e-02         -0.3908
1488       2.780e+00       8.175e+00       6.322e-01          -0.001          -0.053           0.999       1.477e-02         -0.3952
1489       2.862e+00       8.175e+00       6.300e-01           0.054          -0.064           0.996       1.517e-02         -0.3589
1490       2.946e+00       8.176e+00       6.239e-01           0.091          -0.071           0.993       1.521e-02         -0.2896
1491       3.028e+00       8.176e+00       6.152e-01           0.119          -0.076           0.990       1.488e-02         -0.2159
1492       3.108e+00       8.177e+00       6.050e-01           0.138          -0.079           0.987       1.418e-02         -0.1430
1493       3.182e+00       8.177e+00       5.942e-01           0.150          -0.080           0.985       1.311e-02         -0.0725
1494       3.250e+00       8.178e+00       5.839e-01           0.152          -0.080           0.985       1.170e-02         -0.0080
1495       3.309e+00       8.179e+00       5.749e-01           0.148          -0.080           0.986       9.988e-03          0.0468
1496       3.358e+00       8.179e+00       5.678e-01           0.139          -0.079           0.987       8.025e-03          0.0899
1497       3.395e+00       8.179e+00       5.627e-01           0.126          -0.078           0.989       5.868e-03          0.1244
1498       3.421e+00       8.180e+00       5.595e-01           0.116          -0.077           0.990       3.576e-03          0.1619
1499       3.434e+00       8.180e+00       5.580e-01           0.112          -0.077           0.991       1.201e-03          0.1872
Strip 38
1500       3.448e+00       8.335e+00       5.684e-01          -0.036           0.071          -0.997       8.326e-04          0.2108
1501       3.435e+00       8.335e+00       5.687e-01          -0.020           0.070          -0.997       2.476e-03          0.2183
1502       3.410e+00       8.335e+00       5.686e-01           0.016           0.066          -0.998       4.059e-03          0.2223
1503       3.373e+00       8.335e+00       5.671e-01           0.059           0.062          -0.996       5.551e-03          0.1994
1504       3.326e+00       8.336e+00       5.636e-01           0.086           0.059          -0.995       6.913e-03          0.1546
1505       3.268e+00       8.336e+00       5.581e-01           0.104           0.057          -0.993       8.110e-03          0.1045
1506       3.203e+00       8.337e+00       5.509e-01           0.114           0.056          -0.992       9.104e-03          0.0485
1507       3.131e+00       8.337e+00       5.427e-01           0.114           0.056          -0.992       9.866e-03         -0.0109
1508       3.054e+00       8.338e+00       5.343e-01           0.105           0.057          -0.993       1.038e-02         -0.0721
1509       2.974e+00       8.338e+00       5.266e-01           0.087           0.060          -0.994       1.062e-02         -0.1342
1510       2.893e+00       8.338e+00       5.207e-01           0.059           0.066          -0.996       1.060e-02         -0.1945
1511       2.813e+00       8.339e+00       5.177e-01           0.014           0.075          -0.997       1.032e-02         -0.2291
1512       2.736e+00       8.339e+00       5.180e-01          -0.023           0.083          -0.996       9.812e-03         -0.2320
1513       2.664e+00       8.338e+00       5.208e-01          -0.055           0.090          -0.994       9.067e-03         -0.2276
1514       2.598e+00       8.338e+00       5.254e-01          -0.086           0.098          -0.991       8.106e-03         -0.2230
1515       2.541e+00       8.338e+00       5.313e-01          -0.122           0.107          -0.987       6.951e-03         -0.2174
1516       2.493e+00       8.337e+00       5.382e-01          -0.170           0.119          -0.978       5.635e-03         -0.2090
1517       2.457e+00       8.337e+00       5.458e-01          -0.247           0.139          -0.959       4.203e-03         -0.1993
1518       2.432e+00       8.336e+00       5.541e-01          -0.414           0.182          -0.892       2.746e-03         -0.1625
1519       2.419e+00       8.336e+00       5.640e-01          -0.839           0.275          -0.469       1.713e-03          0.5790
1520       2.419e+00       8.335e+00       5.751e-01          -0.844           0.211           0.492       1.741e-03          0.6513
1521       2.432e+00       8.334e+00       5.861e-01          -0.489           0.084           0.868       2.873e-03         -0.0124
1522       2.457e+00       8.334e+00       5.969e-01          -0.329           0.034           0.944       4.317e-03         -0.1692
1523       2.493e+00       8.333e+00       6.076e-01          -0.241           0.008           0.970       5.720e-03         -0.2479
1524       2.541e+00       8.332e+00       6.177e-01          -0.181          -0.009           0.983       7.006e-03         -0.2929
1525       2.598e+00       8.332e+00       6.266e-01          -0.132          -0.023           0.991       8.132e-03         -0.3190
1526       2.664e+00       8.331e+00       6.338e-01          -0.090          -0.033           0.995       9.071e-03         -0.3354
1527       2.736e+00       8.331e+00       6.387e-01          -0.047          -0.043           0.998       9.796e-03         -0.3477
1528       2.813e+00       8.331e+00       6.406e-01          -0.001          -0.053           0.999       1.030e-02         -0.3491
1529       2.893e+00       8.331e+00       6.384e-01           0.054          -0.064           0.996       1.057e-02         -0.3145
1530       2.974e+00       8.331e+00       6.325e-01           0.091          -0.071           0.993       1.060e-02         -0.2511
1531       3.054e+00       8.332e+00       6.241e-01           0.119          -0.076           0.990       1.037e-02         -0.1856
1532       3.131e+00       8.332e+00       6.142e-01           0.138          -0.079           0.987       9.884e-03         -0.1217
1533       3.203e+00       8.333e+00       6.037e-01           0.150          -0.080           0.985       9.139e-03         -0.0602
1534       3.268e+00       8.334e+00       5.937e-01           0.152          -0.080           0.985       8.156e-03         -0.0036
1535       3.326e+00       8.334e+00       5.850e-01           0.148          -0.080           0.986       6.962e-03          0.0450
1536       3.373e+00       8.335e+00       5.781e-01           0.139          -0.079           0.987       5.595e-03          0.0838
1537       3.410e+00       8.335e+00       5.732e-01           0.126          -0.078           0.989       4.091e-03          0.1152
1538       3.435e+00       8.335e+00       5.701e-01           0.116          -0.077           0.990       2.493e-03          0.1505
1539       3.448e+00       8.335e+00       5.686e-01           0.112          -0.077           0.991       8.373e-04          0.1744
Strip 39
1540       3.456e+00       8.440e+00       5.755e-01          -0.036           0.071          -0.997       4.912e-04          0.1818
1541       3.444e+00       8.440e+00       5.758e-01          -0.020           0.070          -0.997       1.461e-03          0.1873
1542       3.419e+00       8.440e+00       5.757e-01           0.016           0.066          -0.998       2.394e-03          0.1888
1543       3.383e+00       8.440e+00       5.742e-01           0.059           0.062          -0.996       3.275e-03          0.1658
1544       3.337e+00       8.440e+00       5.708e-01           0.086           0.059          -0.995       4.079e-03          0.1237
1545       3.281e+00       8.440e+00       5.654e-01           0.104           0.057          -0.993       4.785e-03          0.0797
1546       3.217e+00       8.441e+00       5.584e-01           0.114           0.056          -0.992       5.371e-03          0.0327
1547       3.146e+00       8.441e+00       5.503e-01           0.114           0.056          -0.992       5.821e-03         -0.0163
1548       3.071e+00       8.442e+00       5.421e-01           0.105           0.057          -0.993       6.122e-03         -0.0659
1549       2.992e+00       8.443e+00       5.346e-01           0.087           0.060          -0.994       6.266e-03         -0.1159
1550       2.913e+00       8.443e+00       5.288e-01           0.059           0.066          -0.996       6.254e-03         -0.1655
1551       2.835e+00       8.443e+00       5.259e-01           0.014           0.075          -0.997       6.091e-03         -0.1939
1552       2.759e+00       8.443e+00       5.262e-01          -0.023           0.083          -0.996       5.788e-03         -0.1960
1553       2.689e+00       8.443e+00       5.289e-01          -0.055           0.090          -0.994       5.349e-03         -0.1944
1554       2.625e+00       8.443e+00       5.334e-01          -0.086           0.098          -0.991       4.782e-03         -0.1960
1555       2.569e+00       8.442e+00       5.392e-01          -0.122           0.107          -0.987       4.101e-03         -0.2023
1556       2.522e+00       8.442e+00       5.459e-01          -0.170           0.119          -0.978       3.324e-03         -0.2124
1557       2.486e+00       8.441e+00       5.534e-01          -0.247           0.139          -0.959       2.479e-03         -0.2254
1558       2.462e+00       8.441e+00       5.615e-01          -0.414           0.182          -0.892       1.620e-03         -0.2106
1559       2.449e+00       8.440e+00       5.712e-01          -0.840           0.275          -0.469       1.010e-03          0.5284
1560       2.449e+00       8.439e+00       5.820e-01          -0.844           0.211           0.493       1.027e-03          0.6016
1561       2.462e+00       8.439e+00       5.928e-01          -0.488           0.084           0.869       1.696e-03         -0.0579
1562       2.486e+00       8.438e+00       6.034e-01          -0.329           0.034           0.944       2.547e-03         -0.1923
1563       2.522e+00       8.437e+00       6.139e-01          -0.241           0.008           0.970       3.375e-03         -0.2434
1564       2.569e+00       8.437e+00       6.238e-01          -0.181          -0.009           0.984       4.134e-03         -0.2631
1565       2.625e+00       8.436e+00       6.325e-01          -0.132          -0.023           0.991       4.798e-03         -0.2716
1566       2.689e+00       8.436e+00       6.396e-01          -0.090          -0.033           0.995       5.352e-03         -0.2775
1567       2.759e+00       8.435e+00       6.444e-01          -0.047          -0.043           0.998       5.780e-03         -0.2841
1568       2.835e+00       8.435e+00       6.462e-01          -0.001          -0.053           0.999       6.075e-03         -0.2845
1569       2.913e+00       8.435e+00       6.441e-01           0.054          -0.064           0.996       6.237e-03         -0.2556
1570       2.992e+00       8.436e+00       6.383e-01           0.091          -0.071           0.993       6.255e-03         -0.2037
1571       3.071e+00       8.436e+00       6.300e-01           0.119          -0.076           0.990       6.120e-03         -0.1520
1572       3.146e+00       8.437e+00       6.203e-01           0.138          -0.079           0.987       5.831e-03         -0.1026
1573       3.217e+00       8.437e+00       6.101e-01           0.150          -0.080           0.985       5.392e-03         -0.0559
1574       3.281e+00       8.438e+00       6.003e-01           0.153          -0.080           0.985       4.812e-03         -0.0136
1575       3.337e+00       8.439e+00       5.918e-01           0.148          -0.080           0.986       4.108e-03          0.0233
1576       3.383e+00       8.439e+00       5.850e-01           0.139          -0.079           0.987       3.301e-03          0.0542
1577       3.419e+00       8.439e+00       5.802e-01           0.126          -0.078           0.989       2.413e-03          0.0811
1578       3.444e+00       8.440e+00       5.772e-01           0.116          -0.077           0.990       1.471e-03          0.1135
1579       3.456e+00       8.440e+00       5.757e-01           0.112          -0.077           0.991       4.940e-04          0.1361
Strip 40
1580       3.461e+00       8.492e+00       5.790e-01          -0.036           0.071          -0.997       1.623e-04          0.1362
1581       3.449e+00       8.492e+00       5.793e-01          -0.020           0.070          -0.997       4.827e-04          0.1356
1582       3.424e+00       8.492e+00       5.793e-01           0.016           0.066          -0.998       7.913e-04          0.1287
1583       3.389e+00       8.492e+00       5.778e-01           0.059           0.062          -0.996       1.082e-03          0.1038
1584       3.343e+00       8.492e+00       5.744e-01           0.086           0.059          -0.995       1.348e-03          0.0698
1585       3.287e+00       8.493e+00       5.691e-01           0.104           0.057          -0.993       1.581e-03          0.0393
1586       3.224e+00       8.493e+00       5.621e-01           0.114           0.056          -0.992       1.775e-03          0.0063
1587       3.154e+00       8.494e+00       5.542e-01           0.114           0.056          -0.992       1.924e-03         -0.0284
1588       3.079e+00       8.494e+00       5.460e-01           0.105           0.057          -0.993       2.023e-03         -0.0636
1589       3.002e+00       8.495e+00       5.386e-01           0.087           0.060          -0.994       2.071e-03         -0.0990
1590       2.923e+00       8.495e+00       5.328e-01           0.059           0.066          -0.996       2.067e-03         -0.1345
1591       2.846e+00       8.495e+00       5.300e-01           0.014           0.075          -0.997       2.013e-03         -0.1551
1592       2.771e+00       8.495e+00       5.303e-01          -0.023           0.083          -0.996       1.913e-03         -0.1568
1593       2.701e+00       8.495e+00       5.330e-01          -0.055           0.090          -0.994       1.768e-03         -0.1560
1594       2.638e+00       8.495e+00       5.374e-01          -0.086           0.098          -0.991       1.580e-03         -0.1577
1595       2.582e+00       8.495e+00       5.431e-01          -0.122           0.107          -0.987       1.355e-03         -0.1637
1596       2.536e+00       8.494e+00       5.498e-01          -0.170           0.119          -0.978       1.099e-03         -0.1772
1597       2.501e+00       8.494e+00       5.572e-01          -0.247           0.139          -0.959       8.193e-04         -0.2056
1598       2.477e+00       8.493e+00       5.652e-01          -0.414           0.182          -0.892       5.353e-04         -0.2255
1599       2.464e+00       8.492e+00       5.748e-01          -0.840           0.275          -0.468       3.339e-04          0.4923
1600       2.464e+00       8.492e+00       5.855e-01          -0.844           0.211           0.493       3.395e-04          0.5397
1601       2.477e+00       8.491e+00       5.962e-01          -0.488           0.084           0.869       5.604e-04         -0.1059
1602       2.501e+00       8.490e+00       6.066e-01          -0.329           0.034           0.944       8.419e-04         -0.1869
1603       2.536e+00       8.490e+00       6.170e-01          -0.241           0.008           0.970       1.115e-03         -0.2063
1604       2.582e+00       8.489e+00       6.268e-01          -0.181          -0.009           0.984       1.366e-03         -0.2130
1605       2.638e+00       8.488e+00       6.355e-01          -0.132          -0.023           0.991       1.586e-03         -0.2166
1606       2.701e+00       8.488e+00       6.425e-01          -0.090          -0.033           0.995       1.769e-03         -0.2198
1607       2.771e+00       8.488e+00       6.472e-01          -0.047          -0.043           0.998       1.910e-03         -0.2238
1608       2.846e+00       8.487e+00       6.490e-01          -0.001          -0.053           0.999       2.008e-03         -0.2228
1609       2.923e+00       8.488e+00       6.469e-01           0.054          -0.064           0.996       2.061e-03         -0.2003
1610       3.002e+00       8.488e+00       6.412e-01           0.091          -0.071           0.993       2.067e-03         -0.1612
1611       3.079e+00       8.488e+00       6.330e-01           0.119          -0.076           0.990       2.022e-03         -0.1220
1612       3.154e+00       8.489e+00       6.234e-01           0.138          -0.079           0.987       1.927e-03         -0.0838
1613       3.224e+00       8.490e+00       6.133e-01           0.150          -0.080           0.985       1.782e-03         -0.0476
1614       3.287e+00       8.490e+00       6.036e-01           0.153          -0.080           0.985       1.590e-03         -0.0166
1615       3.343e+00       8.491e+00       5.952e-01           0.148          -0.080           0.986       1.357e-03          0.0067
1616       3.389e+00       8.492e+00       5.885e-01           0.139          -0.079           0.987       1.091e-03          0.0238
1617       3.424e+00       8.492e+00       5.837e-01           0.126          -0.078           0.989       7.976e-04          0.0393
1618       3.449e+00       8.492e+00       5.807e-01           0.116          -0.077           0.990       4.860e-04          0.0634
1619       3.461e+00       8.492e+00       5.793e-01           0.112          -0.077           0.991       1.632e-04          0.0817










