xflr5 v6.61

Plane Name
T1-10.0 m/s-Panel-Inviscid
QInf  =   10.000000 m/s
Alpha =   10.000000
Beta  =    0.000°
Phi   =    0.000°
Ctrl  =    0.000
CL    =    1.017739
Cy    =   -0.000000
Cd    =    0.035000     ICd   =    0.035000     PCd   =    0.000000
Cl   = -4.97384e-15
Cm   =   -0.855507
ICn   =    0.000000     PCn   =    0.000000 
XCP   =    1.649695     YCP   =    0.000000     ZCP   =    0.314610  
XNP   =    0.000000
Bending = 3299.520949

Main Wing
  y-span        Chord      Ai         Cl        PCd          ICd        CmGeom    CmAirf@chord/4    XTrtop    XTrBot      XCP       BM
   -8.5119     1.0027    -5.139    0.270404    0.000000    0.024306   -0.882820    0.005706     0.0000    0.0000    0.2301    0.0000
   -8.4594     1.0135    -4.705    0.456405    0.000000    0.037539   -1.302794   -0.005835     0.0000    0.0000    0.2592    0.0233
   -8.3547     1.0349    -4.165    0.631574    0.000000    0.045957   -1.666532    0.000710     0.0000    0.0000    0.2452    0.3067
   -8.1986     1.0670    -3.625    0.776823    0.000000    0.049168   -1.974744   -0.006989     0.0000    0.0000    0.2556    1.5594
   -7.9919     1.1094    -3.123    0.889148    0.000000    0.048449   -2.157265   -0.016782     0.0000    0.0000    0.2657    5.1553
   -7.7360     1.1620    -2.686    0.970828    0.000000    0.045468   -2.214826   -0.025077     0.0000    0.0000    0.2727   13.2500
   -7.4323     1.2243    -2.333    1.026774    0.000000    0.041752   -2.172639   -0.031133     0.0000    0.0000    0.2772   28.8288
   -7.0828     1.2960    -2.070    1.062537    0.000000    0.038318   -2.060880   -0.035220     0.0000    0.0000    0.2800   55.7031
   -6.6897     1.3768    -1.890    1.083073    0.000000    0.035640   -1.906089   -0.037861     0.0000    0.0000    0.2818   98.4686
   -6.2553     1.4659    -1.780    1.092276    0.000000    0.033819   -1.728615   -0.039512     0.0000    0.0000    0.2830   162.4298
   -5.7823     1.5630    -1.725    1.092981    0.000000    0.032775   -1.542850   -0.040500     0.0000    0.0000    0.2839   253.4889
   -5.2737     1.6674    -1.713    1.087149    0.000000    0.032365   -1.358363   -0.041049     0.0000    0.0000    0.2846   377.9971
   -4.7326     1.7785    -1.735    1.076068    0.000000    0.032430   -1.181190   -0.041302     0.0000    0.0000    0.2852   542.5621
   -4.1623     1.8956    -1.783    1.060527    0.000000    0.032823   -1.014911   -0.041358     0.0000    0.0000    0.2858   753.8134
   -3.5663     2.0179    -1.850    1.040920    0.000000    0.033395   -0.861410   -0.041295     0.0000    0.0000    0.2865   1018.1252
   -2.9484     2.1448    -1.929    1.017343    0.000000    0.033991   -0.721551   -0.041217     0.0000    0.0000    0.2873   1341.3038
   -2.3122     2.2753    -2.013    0.989615    0.000000    0.034424   -0.595639   -0.041311     0.0000    0.0000    0.2885   1728.2480
   -1.6619     2.4089    -2.089    0.957252    0.000000    0.034422   -0.483846   -0.042008     0.0000    0.0000    0.2906   2182.5925
   -1.0012     2.5445    -2.140    0.919126    0.000000    0.033542   -0.386890   -0.044375     0.0000    0.0000    0.2949   2706.3468
   -0.3344     2.6813    -2.152    0.867414    0.000000    0.030199   -0.307346   -0.051473     0.0000    0.0000    0.3052   3299.5209
    0.3344     2.6813    -2.152    0.867414    0.000000    0.030199   -0.307346   -0.051473     0.0000    0.0000    0.3052   3299.5209
    1.0012     2.5445    -2.140    0.919126    0.000000    0.033542   -0.386890   -0.044375     0.0000    0.0000    0.2949   2706.3468
    1.6619     2.4089    -2.089    0.957252    0.000000    0.034422   -0.483846   -0.042008     0.0000    0.0000    0.2906   2182.5925
    2.3122     2.2753    -2.013    0.989615    0.000000    0.034424   -0.595639   -0.041311     0.0000    0.0000    0.2885   1728.2480
    2.9484     2.1448    -1.929    1.017343    0.000000    0.033991   -0.721551   -0.041217     0.0000    0.0000    0.2873   1341.3038
    3.5663     2.0179    -1.850    1.040920    0.000000    0.033395   -0.861410   -0.041295     0.0000    0.0000    0.2865   1018.1252
    4.1623     1.8956    -1.783    1.060527    0.000000    0.032823   -1.014911   -0.041358     0.0000    0.0000    0.2858   753.8134
    4.7326     1.7785    -1.735    1.076068    0.000000    0.032430   -1.181190   -0.041302     0.0000    0.0000    0.2852   542.5621
    5.2737     1.6674    -1.713    1.087149    0.000000    0.032365   -1.358363   -0.041049     0.0000    0.0000    0.2846   377.9971
    5.7823     1.5630    -1.725    1.092981    0.000000    0.032775   -1.542850   -0.040500     0.0000    0.0000    0.2839   253.4889
    6.2553     1.4659    -1.780    1.092276    0.000000    0.033819   -1.728615   -0.039512     0.0000    0.0000    0.2830   162.4298
    6.6897     1.3768    -1.890    1.083073    0.000000    0.035640   -1.906089   -0.037861     0.0000    0.0000    0.2818   98.4686
    7.0828     1.2960    -2.070    1.062537    0.000000    0.038318   -2.060880   -0.035220     0.0000    0.0000    0.2800   55.7031
    7.4323     1.2243    -2.333    1.026774    0.000000    0.041752   -2.172639   -0.031133     0.0000    0.0000    0.2772   28.8288
    7.7360     1.1620    -2.686    0.970828    0.000000    0.045468   -2.214826   -0.025077     0.0000    0.0000    0.2727   13.2500
    7.9919     1.1094    -3.123    0.889148    0.000000    0.048449   -2.157265   -0.016782     0.0000    0.0000    0.2657    5.1553
    8.1986     1.0670    -3.625    0.776823    0.000000    0.049168   -1.974744   -0.006989     0.0000    0.0000    0.2556    1.5594
    8.3547     1.0349    -4.165    0.631574    0.000000    0.045957   -1.666532    0.000710     0.0000    0.0000    0.2452    0.3067
    8.4594     1.0135    -4.705    0.456405    0.000000    0.037539   -1.302794   -0.005835     0.0000    0.0000    0.2592    0.0233
    8.5119     1.0027    -5.139    0.270404    0.000000    0.024306   -0.882820    0.005706     0.0000    0.0000    0.2301    0.0000


Main Wing Cp Coefficients
 Panel     CtrlPt.x        CtrlPt.y        CtrlPt.z       Nx      Ny       Nz        Area       Cp
Main WingCp Coefficients
Strip 1
  20       3.461e+00      -8.492e+00       5.790e-01          -0.036          -0.071          -0.997       1.623e-04         -0.9034
  21       3.449e+00      -8.492e+00       5.793e-01          -0.020          -0.070          -0.997       4.827e-04         -0.9102
  22       3.424e+00      -8.492e+00       5.793e-01           0.016          -0.066          -0.998       7.913e-04         -0.9157
  23       3.389e+00      -8.492e+00       5.778e-01           0.059          -0.062          -0.996       1.082e-03         -0.8929
  24       3.343e+00      -8.492e+00       5.744e-01           0.086          -0.059          -0.995       1.348e-03         -0.8019
  25       3.287e+00      -8.493e+00       5.691e-01           0.104          -0.057          -0.993       1.581e-03         -0.6625
  26       3.224e+00      -8.493e+00       5.621e-01           0.114          -0.056          -0.992       1.775e-03         -0.5230
  27       3.154e+00      -8.494e+00       5.542e-01           0.114          -0.056          -0.992       1.924e-03         -0.4112
  28       3.079e+00      -8.494e+00       5.460e-01           0.105          -0.057          -0.993       2.023e-03         -0.3318
  29       3.002e+00      -8.495e+00       5.386e-01           0.087          -0.060          -0.994       2.071e-03         -0.2782
  30       2.923e+00      -8.495e+00       5.328e-01           0.059          -0.066          -0.996       2.067e-03         -0.2395
  31       2.846e+00      -8.495e+00       5.300e-01           0.014          -0.075          -0.997       2.013e-03         -0.2001
  32       2.771e+00      -8.495e+00       5.303e-01          -0.023          -0.083          -0.996       1.913e-03         -0.1573
  33       2.701e+00      -8.495e+00       5.330e-01          -0.055          -0.090          -0.994       1.768e-03         -0.1143
  34       2.638e+00      -8.495e+00       5.374e-01          -0.086          -0.098          -0.991       1.580e-03         -0.0647
  35       2.582e+00      -8.495e+00       5.431e-01          -0.122          -0.107          -0.987       1.355e-03          0.0020
  36       2.536e+00      -8.494e+00       5.498e-01          -0.170          -0.119          -0.978       1.099e-03          0.1055
  37       2.501e+00      -8.494e+00       5.572e-01          -0.247          -0.139          -0.959       8.193e-04          0.2848
  38       2.477e+00      -8.493e+00       5.652e-01          -0.414          -0.182          -0.892       5.353e-04          0.5872
  39       2.464e+00      -8.492e+00       5.748e-01          -0.840          -0.275          -0.468       3.339e-04          0.4016
  40       2.464e+00      -8.492e+00       5.855e-01          -0.844          -0.211           0.493       3.395e-04         -1.7183
  41       2.477e+00      -8.491e+00       5.962e-01          -0.488          -0.084           0.869       5.604e-04         -1.8163
  42       2.501e+00      -8.490e+00       6.066e-01          -0.329          -0.034           0.944       8.419e-04         -1.1028
  43       2.536e+00      -8.490e+00       6.170e-01          -0.241          -0.008           0.970       1.115e-03         -0.8099
  44       2.582e+00      -8.489e+00       6.268e-01          -0.181           0.009           0.984       1.366e-03         -0.6686
  45       2.638e+00      -8.488e+00       6.355e-01          -0.132           0.023           0.991       1.586e-03         -0.5896
  46       2.701e+00      -8.488e+00       6.425e-01          -0.090           0.033           0.995       1.769e-03         -0.5417
  47       2.771e+00      -8.488e+00       6.472e-01          -0.047           0.043           0.998       1.910e-03         -0.5113
  48       2.846e+00      -8.487e+00       6.490e-01          -0.001           0.053           0.999       2.008e-03         -0.4847
  49       2.923e+00      -8.488e+00       6.469e-01           0.054           0.064           0.996       2.061e-03         -0.4440
  50       3.002e+00      -8.488e+00       6.412e-01           0.091           0.071           0.993       2.067e-03         -0.4122
  51       3.079e+00      -8.488e+00       6.330e-01           0.119           0.076           0.990       2.022e-03         -0.4123
  52       3.154e+00      -8.489e+00       6.234e-01           0.138           0.079           0.987       1.927e-03         -0.4530
  53       3.224e+00      -8.490e+00       6.133e-01           0.150           0.080           0.985       1.782e-03         -0.5448
  54       3.287e+00      -8.490e+00       6.036e-01           0.153           0.080           0.985       1.590e-03         -0.6895
  55       3.343e+00      -8.491e+00       5.952e-01           0.148           0.080           0.986       1.357e-03         -0.8633
  56       3.389e+00      -8.492e+00       5.885e-01           0.139           0.079           0.987       1.091e-03         -1.0177
  57       3.424e+00      -8.492e+00       5.837e-01           0.126           0.078           0.989       7.976e-04         -1.1056
  58       3.449e+00      -8.492e+00       5.807e-01           0.116           0.077           0.990       4.860e-04         -1.1221
  59       3.461e+00      -8.492e+00       5.793e-01           0.112           0.077           0.991       1.632e-04         -1.1148
Strip 2
  60       3.456e+00      -8.440e+00       5.755e-01          -0.036          -0.071          -0.997       4.912e-04         -0.3476
  61       3.444e+00      -8.440e+00       5.758e-01          -0.020          -0.070          -0.997       1.461e-03         -0.3402
  62       3.419e+00      -8.440e+00       5.757e-01           0.016          -0.066          -0.998       2.394e-03         -0.3289
  63       3.383e+00      -8.440e+00       5.742e-01           0.059          -0.062          -0.996       3.275e-03         -0.3192
  64       3.337e+00      -8.440e+00       5.708e-01           0.086          -0.059          -0.995       4.079e-03         -0.2977
  65       3.281e+00      -8.440e+00       5.654e-01           0.104          -0.057          -0.993       4.785e-03         -0.2645
  66       3.217e+00      -8.441e+00       5.584e-01           0.114          -0.056          -0.992       5.371e-03         -0.2339
  67       3.146e+00      -8.441e+00       5.503e-01           0.114          -0.056          -0.992       5.821e-03         -0.2126
  68       3.071e+00      -8.442e+00       5.421e-01           0.105          -0.057          -0.993       6.122e-03         -0.1992
  69       2.992e+00      -8.443e+00       5.346e-01           0.087          -0.060          -0.994       6.266e-03         -0.1900
  70       2.913e+00      -8.443e+00       5.288e-01           0.059          -0.066          -0.996       6.254e-03         -0.1807
  71       2.835e+00      -8.443e+00       5.259e-01           0.014          -0.075          -0.997       6.091e-03         -0.1528
  72       2.759e+00      -8.443e+00       5.262e-01          -0.023          -0.083          -0.996       5.788e-03         -0.1057
  73       2.689e+00      -8.443e+00       5.289e-01          -0.055          -0.090          -0.994       5.349e-03         -0.0500
  74       2.625e+00      -8.443e+00       5.334e-01          -0.086          -0.098          -0.991       4.782e-03          0.0183
  75       2.569e+00      -8.442e+00       5.392e-01          -0.122          -0.107          -0.987       4.101e-03          0.1122
  76       2.522e+00      -8.442e+00       5.459e-01          -0.170          -0.119          -0.978       3.324e-03          0.2552
  77       2.486e+00      -8.441e+00       5.534e-01          -0.247          -0.139          -0.959       2.479e-03          0.4781
  78       2.462e+00      -8.441e+00       5.615e-01          -0.414          -0.182          -0.892       1.620e-03          0.7500
  79       2.449e+00      -8.440e+00       5.712e-01          -0.840          -0.275          -0.469       1.010e-03          0.1080
  80       2.449e+00      -8.439e+00       5.820e-01          -0.844          -0.211           0.493       1.027e-03         -2.5585
  81       2.462e+00      -8.439e+00       5.928e-01          -0.488          -0.084           0.869       1.696e-03         -2.4035
  82       2.486e+00      -8.438e+00       6.034e-01          -0.329          -0.034           0.944       2.547e-03         -1.4420
  83       2.522e+00      -8.437e+00       6.139e-01          -0.241          -0.008           0.970       3.375e-03         -1.0298
  84       2.569e+00      -8.437e+00       6.238e-01          -0.181           0.009           0.984       4.134e-03         -0.8170
  85       2.625e+00      -8.436e+00       6.325e-01          -0.132           0.023           0.991       4.798e-03         -0.6951
  86       2.689e+00      -8.436e+00       6.396e-01          -0.090           0.033           0.995       5.352e-03         -0.6214
  87       2.759e+00      -8.435e+00       6.444e-01          -0.047           0.043           0.998       5.780e-03         -0.5749
  88       2.835e+00      -8.435e+00       6.462e-01          -0.001           0.053           0.999       6.075e-03         -0.5364
  89       2.913e+00      -8.435e+00       6.441e-01           0.054           0.064           0.996       6.237e-03         -0.4766
  90       2.992e+00      -8.436e+00       6.383e-01           0.091           0.071           0.993       6.255e-03         -0.4148
  91       3.071e+00      -8.436e+00       6.300e-01           0.119           0.076           0.990       6.120e-03         -0.3772
  92       3.146e+00      -8.437e+00       6.203e-01           0.138           0.079           0.987       5.831e-03         -0.3678
  93       3.217e+00      -8.437e+00       6.101e-01           0.150           0.080           0.985       5.392e-03         -0.3855
  94       3.281e+00      -8.438e+00       6.003e-01           0.153           0.080           0.985       4.812e-03         -0.4243
  95       3.337e+00      -8.439e+00       5.918e-01           0.148           0.080           0.986       4.108e-03         -0.4688
  96       3.383e+00      -8.439e+00       5.850e-01           0.139           0.079           0.987       3.301e-03         -0.4995
  97       3.419e+00      -8.439e+00       5.802e-01           0.126           0.078           0.989       2.413e-03         -0.5046
  98       3.444e+00      -8.440e+00       5.772e-01           0.116           0.077           0.990       1.471e-03         -0.4827
  99       3.456e+00      -8.440e+00       5.757e-01           0.112           0.077           0.991       4.940e-04         -0.4618
Strip 3
 100       3.448e+00      -8.335e+00       5.684e-01          -0.036          -0.071          -0.997       8.326e-04          0.0901
 101       3.435e+00      -8.335e+00       5.687e-01          -0.020          -0.070          -0.997       2.476e-03          0.1004
 102       3.410e+00      -8.335e+00       5.686e-01           0.016          -0.066          -0.998       4.059e-03          0.1078
 103       3.373e+00      -8.335e+00       5.671e-01           0.059          -0.062          -0.996       5.551e-03          0.0895
 104       3.326e+00      -8.336e+00       5.636e-01           0.086          -0.059          -0.995       6.913e-03          0.0564
 105       3.268e+00      -8.336e+00       5.581e-01           0.104          -0.057          -0.993       8.110e-03          0.0221
 106       3.203e+00      -8.337e+00       5.509e-01           0.114          -0.056          -0.992       9.104e-03         -0.0119
 107       3.131e+00      -8.337e+00       5.427e-01           0.114          -0.056          -0.992       9.866e-03         -0.0425
 108       3.054e+00      -8.338e+00       5.343e-01           0.105          -0.057          -0.993       1.038e-02         -0.0676
 109       2.974e+00      -8.338e+00       5.266e-01           0.087          -0.060          -0.994       1.062e-02         -0.0858
 110       2.893e+00      -8.338e+00       5.207e-01           0.059          -0.066          -0.996       1.060e-02         -0.0937
 111       2.813e+00      -8.339e+00       5.177e-01           0.014          -0.075          -0.997       1.032e-02         -0.0694
 112       2.736e+00      -8.339e+00       5.180e-01          -0.023          -0.083          -0.996       9.812e-03         -0.0133
 113       2.664e+00      -8.338e+00       5.208e-01          -0.055          -0.090          -0.994       9.067e-03          0.0615
 114       2.598e+00      -8.338e+00       5.254e-01          -0.086          -0.098          -0.991       8.106e-03          0.1573
 115       2.541e+00      -8.338e+00       5.313e-01          -0.122          -0.107          -0.987       6.951e-03          0.2844
 116       2.493e+00      -8.337e+00       5.382e-01          -0.170          -0.119          -0.978       5.635e-03          0.4561
 117       2.457e+00      -8.337e+00       5.458e-01          -0.247          -0.139          -0.959       4.203e-03          0.6807
 118       2.432e+00      -8.336e+00       5.541e-01          -0.414          -0.182          -0.892       2.746e-03          0.8572
 119       2.419e+00      -8.336e+00       5.640e-01          -0.839          -0.275          -0.469       1.713e-03         -0.2287
 120       2.419e+00      -8.335e+00       5.751e-01          -0.844          -0.211           0.492       1.741e-03         -3.3629
 121       2.432e+00      -8.334e+00       5.861e-01          -0.489          -0.084           0.868       2.873e-03         -2.9473
 122       2.457e+00      -8.334e+00       5.969e-01          -0.329          -0.034           0.944       4.317e-03         -1.7784
 123       2.493e+00      -8.333e+00       6.076e-01          -0.241          -0.008           0.970       5.720e-03         -1.2870
 124       2.541e+00      -8.332e+00       6.177e-01          -0.181           0.009           0.983       7.006e-03         -1.0211
 125       2.598e+00      -8.332e+00       6.266e-01          -0.132           0.023           0.991       8.132e-03         -0.8555
 126       2.664e+00      -8.331e+00       6.338e-01          -0.090           0.033           0.995       9.071e-03         -0.7465
 127       2.736e+00      -8.331e+00       6.387e-01          -0.047           0.043           0.998       9.796e-03         -0.6721
 128       2.813e+00      -8.331e+00       6.406e-01          -0.001           0.053           0.999       1.030e-02         -0.6087
 129       2.893e+00      -8.331e+00       6.384e-01           0.054           0.064           0.996       1.057e-02         -0.5183
 130       2.974e+00      -8.331e+00       6.325e-01           0.091           0.071           0.993       1.060e-02         -0.4157
 131       3.054e+00      -8.332e+00       6.241e-01           0.119           0.076           0.990       1.037e-02         -0.3260
 132       3.131e+00      -8.332e+00       6.142e-01           0.138           0.079           0.987       9.884e-03         -0.2500
 133       3.203e+00      -8.333e+00       6.037e-01           0.150           0.080           0.985       9.139e-03         -0.1843
 134       3.268e+00      -8.334e+00       5.937e-01           0.152           0.080           0.985       8.156e-03         -0.1285
 135       3.326e+00      -8.334e+00       5.850e-01           0.148           0.080           0.986       6.962e-03         -0.0825
 136       3.373e+00      -8.335e+00       5.781e-01           0.139           0.079           0.987       5.595e-03         -0.0460
 137       3.410e+00      -8.335e+00       5.732e-01           0.126           0.078           0.989       4.091e-03         -0.0153
 138       3.435e+00      -8.335e+00       5.701e-01           0.116           0.077           0.990       2.493e-03          0.0224
 139       3.448e+00      -8.335e+00       5.686e-01           0.112           0.077           0.991       8.373e-04          0.0492
Strip 4
 140       3.434e+00      -8.180e+00       5.577e-01          -0.036          -0.071          -0.997       1.194e-03          0.1879
 141       3.421e+00      -8.180e+00       5.581e-01          -0.020          -0.070          -0.997       3.552e-03          0.2008
 142       3.395e+00      -8.180e+00       5.580e-01           0.016          -0.066          -0.998       5.822e-03          0.2115
 143       3.358e+00      -8.180e+00       5.564e-01           0.059          -0.062          -0.996       7.962e-03          0.1945
 144       3.309e+00      -8.180e+00       5.528e-01           0.086          -0.059          -0.995       9.916e-03          0.1604
 145       3.250e+00      -8.180e+00       5.472e-01           0.104          -0.057          -0.993       1.163e-02          0.1226
 146       3.182e+00      -8.181e+00       5.398e-01           0.114          -0.056          -0.992       1.306e-02          0.0829
 147       3.108e+00      -8.181e+00       5.313e-01           0.114          -0.056          -0.992       1.415e-02          0.0448
 148       3.028e+00      -8.182e+00       5.226e-01           0.105          -0.057          -0.993       1.488e-02          0.0123
 149       2.946e+00      -8.182e+00       5.147e-01           0.087          -0.060          -0.994       1.523e-02         -0.0117
 150       2.862e+00      -8.183e+00       5.086e-01           0.059          -0.066          -0.996       1.521e-02         -0.0219
 151       2.780e+00      -8.183e+00       5.055e-01           0.014          -0.075          -0.997       1.481e-02          0.0052
 152       2.701e+00      -8.183e+00       5.059e-01          -0.023          -0.083          -0.996       1.407e-02          0.0687
 153       2.626e+00      -8.183e+00       5.087e-01          -0.055          -0.090          -0.994       1.301e-02          0.1542
 154       2.559e+00      -8.182e+00       5.134e-01          -0.086          -0.098          -0.991       1.163e-02          0.2608
 155       2.500e+00      -8.182e+00       5.195e-01          -0.122          -0.107          -0.987       9.972e-03          0.3947
 156       2.451e+00      -8.182e+00       5.266e-01          -0.170          -0.119          -0.978       8.085e-03          0.5647
 157       2.413e+00      -8.181e+00       5.345e-01          -0.247          -0.139          -0.959       6.030e-03          0.7720
 158       2.387e+00      -8.181e+00       5.431e-01          -0.414          -0.182          -0.892       3.941e-03          0.8572
 159       2.374e+00      -8.180e+00       5.532e-01          -0.839          -0.275          -0.470       2.458e-03         -0.5970
 160       2.374e+00      -8.179e+00       5.647e-01          -0.845          -0.211           0.492       2.496e-03         -4.0813
 161       2.387e+00      -8.178e+00       5.760e-01          -0.489          -0.084           0.868       4.120e-03         -3.4118
 162       2.413e+00      -8.178e+00       5.871e-01          -0.329          -0.034           0.944       6.191e-03         -2.0464
 163       2.451e+00      -8.177e+00       5.982e-01          -0.241          -0.008           0.970       8.203e-03         -1.4888
 164       2.500e+00      -8.176e+00       6.086e-01          -0.181           0.009           0.983       1.005e-02         -1.1913
 165       2.559e+00      -8.176e+00       6.178e-01          -0.132           0.023           0.991       1.166e-02         -1.0046
 166       2.626e+00      -8.175e+00       6.253e-01          -0.090           0.033           0.995       1.301e-02         -0.8768
 167       2.701e+00      -8.175e+00       6.303e-01          -0.047           0.043           0.998       1.405e-02         -0.7841
 168       2.780e+00      -8.175e+00       6.322e-01          -0.001           0.053           0.999       1.477e-02         -0.7018
 169       2.862e+00      -8.175e+00       6.300e-01           0.054           0.064           0.996       1.517e-02         -0.5893
 170       2.946e+00      -8.176e+00       6.239e-01           0.091           0.071           0.993       1.521e-02         -0.4613
 171       3.028e+00      -8.176e+00       6.152e-01           0.119           0.076           0.990       1.488e-02         -0.3445
 172       3.108e+00      -8.177e+00       6.050e-01           0.138           0.079           0.987       1.418e-02         -0.2409
 173       3.182e+00      -8.177e+00       5.942e-01           0.150           0.080           0.985       1.311e-02         -0.1490
 174       3.250e+00      -8.178e+00       5.839e-01           0.152           0.080           0.985       1.170e-02         -0.0701
 175       3.309e+00      -8.179e+00       5.749e-01           0.148           0.080           0.986       9.988e-03         -0.0057
 176       3.358e+00      -8.179e+00       5.678e-01           0.139           0.079           0.987       8.025e-03          0.0444
 177       3.395e+00      -8.179e+00       5.627e-01           0.126           0.078           0.989       5.868e-03          0.0846
 178       3.421e+00      -8.180e+00       5.595e-01           0.116           0.077           0.990       3.576e-03          0.1295
 179       3.434e+00      -8.180e+00       5.580e-01           0.112           0.077           0.991       1.201e-03          0.1601
Strip 5
 180       3.417e+00      -7.973e+00       5.437e-01          -0.036          -0.071          -0.997       1.583e-03          0.2224
 181       3.403e+00      -7.973e+00       5.440e-01          -0.020          -0.070          -0.997       4.709e-03          0.2374
 182       3.376e+00      -7.973e+00       5.440e-01           0.016          -0.066          -0.998       7.719e-03          0.2511
 183       3.337e+00      -7.973e+00       5.423e-01           0.059          -0.062          -0.996       1.056e-02          0.2366
 184       3.286e+00      -7.974e+00       5.386e-01           0.086          -0.059          -0.995       1.315e-02          0.2047
 185       3.225e+00      -7.974e+00       5.327e-01           0.104          -0.057          -0.993       1.542e-02          0.1688
 186       3.155e+00      -7.974e+00       5.250e-01           0.114          -0.056          -0.992       1.731e-02          0.1305
 187       3.077e+00      -7.975e+00       5.162e-01           0.114          -0.056          -0.992       1.876e-02          0.0936
 188       2.995e+00      -7.976e+00       5.071e-01           0.105          -0.057          -0.993       1.973e-02          0.0622
 189       2.909e+00      -7.976e+00       4.989e-01           0.087          -0.060          -0.994       2.020e-02          0.0399
 190       2.822e+00      -7.976e+00       4.925e-01           0.059          -0.066          -0.996       2.016e-02          0.0326
 191       2.736e+00      -7.977e+00       4.894e-01           0.014          -0.075          -0.997       1.963e-02          0.0633
 192       2.654e+00      -7.977e+00       4.897e-01          -0.023          -0.083          -0.996       1.866e-02          0.1307
 193       2.577e+00      -7.976e+00       4.927e-01          -0.055          -0.090          -0.994       1.725e-02          0.2195
 194       2.506e+00      -7.976e+00       4.976e-01          -0.086          -0.098          -0.991       1.542e-02          0.3280
 195       2.445e+00      -7.976e+00       5.039e-01          -0.122          -0.107          -0.987       1.322e-02          0.4614
 196       2.394e+00      -7.975e+00       5.113e-01          -0.170          -0.119          -0.978       1.072e-02          0.6271
 197       2.355e+00      -7.975e+00       5.195e-01          -0.247          -0.139          -0.959       7.997e-03          0.8200
 198       2.328e+00      -7.974e+00       5.284e-01          -0.414          -0.182          -0.892       5.227e-03          0.8279
 199       2.314e+00      -7.974e+00       5.390e-01          -0.839          -0.275          -0.470       3.261e-03         -0.9247
 200       2.314e+00      -7.973e+00       5.509e-01          -0.845          -0.212           0.491       3.308e-03         -4.6791
 201       2.328e+00      -7.972e+00       5.627e-01          -0.489          -0.084           0.868       5.460e-03         -3.7914
 202       2.355e+00      -7.972e+00       5.742e-01          -0.329          -0.034           0.944       8.205e-03         -2.2578
 203       2.394e+00      -7.971e+00       5.857e-01          -0.241          -0.008           0.970       1.087e-02         -1.6431
 204       2.445e+00      -7.970e+00       5.966e-01          -0.181           0.009           0.983       1.332e-02         -1.3199
 205       2.506e+00      -7.970e+00       6.062e-01          -0.132           0.023           0.991       1.546e-02         -1.1190
 206       2.577e+00      -7.969e+00       6.139e-01          -0.090           0.033           0.995       1.725e-02         -0.9813
 207       2.654e+00      -7.969e+00       6.192e-01          -0.047           0.043           0.998       1.863e-02         -0.8794
 208       2.736e+00      -7.969e+00       6.211e-01          -0.001           0.053           0.999       1.958e-02         -0.7868
 209       2.822e+00      -7.969e+00       6.188e-01           0.054           0.064           0.996       2.011e-02         -0.6610
 210       2.909e+00      -7.969e+00       6.125e-01           0.091           0.071           0.993       2.017e-02         -0.5176
 211       2.995e+00      -7.970e+00       6.035e-01           0.119           0.076           0.990       1.973e-02         -0.3851
 212       3.077e+00      -7.971e+00       5.928e-01           0.138           0.079           0.987       1.880e-02         -0.2661
 213       3.155e+00      -7.971e+00       5.816e-01           0.150           0.080           0.985       1.738e-02         -0.1598
 214       3.225e+00      -7.972e+00       5.709e-01           0.152           0.080           0.985       1.551e-02         -0.0682
 215       3.286e+00      -7.972e+00       5.616e-01           0.148           0.080           0.986       1.324e-02          0.0067
 216       3.337e+00      -7.973e+00       5.541e-01           0.139           0.079           0.987       1.064e-02          0.0648
 217       3.376e+00      -7.973e+00       5.488e-01           0.126           0.078           0.989       7.781e-03          0.1112
 218       3.403e+00      -7.973e+00       5.455e-01           0.116           0.077           0.990       4.741e-03          0.1613
 219       3.417e+00      -7.973e+00       5.440e-01           0.112           0.077           0.991       1.593e-03          0.1949
Strip 6
 220       3.395e+00      -7.718e+00       5.263e-01          -0.036          -0.071          -0.997       2.006e-03          0.2370
 221       3.381e+00      -7.718e+00       5.266e-01          -0.020          -0.070          -0.997       5.966e-03          0.2538
 222       3.353e+00      -7.718e+00       5.266e-01           0.016          -0.066          -0.998       9.778e-03          0.2700
 223       3.312e+00      -7.718e+00       5.249e-01           0.059          -0.062          -0.996       1.337e-02          0.2576
 224       3.258e+00      -7.718e+00       5.209e-01           0.086          -0.059          -0.995       1.665e-02          0.2281
 225       3.194e+00      -7.719e+00       5.147e-01           0.104          -0.057          -0.993       1.954e-02          0.1947
 226       3.120e+00      -7.719e+00       5.067e-01           0.114          -0.056          -0.992       2.193e-02          0.1590
 227       3.039e+00      -7.720e+00       4.974e-01           0.114          -0.056          -0.992       2.377e-02          0.1248
 228       2.953e+00      -7.720e+00       4.880e-01           0.105          -0.057          -0.993       2.499e-02          0.0961
 229       2.863e+00      -7.721e+00       4.793e-01           0.087          -0.060          -0.994       2.559e-02          0.0766
 230       2.772e+00      -7.721e+00       4.727e-01           0.059          -0.066          -0.996       2.554e-02          0.0723
 231       2.683e+00      -7.721e+00       4.694e-01           0.014          -0.075          -0.997       2.487e-02          0.1054
 232       2.596e+00      -7.721e+00       4.698e-01          -0.023          -0.083          -0.996       2.364e-02          0.1741
 233       2.515e+00      -7.721e+00       4.728e-01          -0.055          -0.090          -0.994       2.185e-02          0.2635
 234       2.442e+00      -7.721e+00       4.780e-01          -0.086          -0.098          -0.991       1.953e-02          0.3717
 235       2.377e+00      -7.720e+00       4.846e-01          -0.122          -0.107          -0.987       1.675e-02          0.5036
 236       2.324e+00      -7.720e+00       4.924e-01          -0.170          -0.119          -0.978       1.358e-02          0.6660
 237       2.283e+00      -7.719e+00       5.009e-01          -0.247          -0.139          -0.959       1.013e-02          0.8474
 238       2.255e+00      -7.719e+00       5.103e-01          -0.414          -0.182          -0.892       6.625e-03          0.7934
 239       2.240e+00      -7.718e+00       5.213e-01          -0.838          -0.275          -0.471       4.133e-03         -1.1875
 240       2.240e+00      -7.718e+00       5.338e-01          -0.845          -0.212           0.490       4.189e-03         -5.1438
 241       2.255e+00      -7.717e+00       5.462e-01          -0.489          -0.084           0.868       6.914e-03         -4.0830
 242       2.283e+00      -7.716e+00       5.583e-01          -0.330          -0.034           0.944       1.039e-02         -2.4166
 243       2.324e+00      -7.716e+00       5.703e-01          -0.241          -0.008           0.970       1.377e-02         -1.7567
 244       2.377e+00      -7.715e+00       5.817e-01          -0.181           0.009           0.983       1.687e-02         -1.4130
 245       2.442e+00      -7.715e+00       5.917e-01          -0.132           0.022           0.991       1.959e-02         -1.2010
 246       2.515e+00      -7.714e+00       5.999e-01          -0.090           0.033           0.995       2.185e-02         -1.0562
 247       2.596e+00      -7.714e+00       6.054e-01          -0.048           0.043           0.998       2.360e-02         -0.9488
 248       2.683e+00      -7.714e+00       6.074e-01          -0.001           0.053           0.999       2.481e-02         -0.8505
 249       2.772e+00      -7.714e+00       6.050e-01           0.054           0.064           0.996       2.547e-02         -0.7168
 250       2.863e+00      -7.714e+00       5.984e-01           0.091           0.071           0.993       2.555e-02         -0.5640
 251       2.953e+00      -7.715e+00       5.889e-01           0.119           0.076           0.990       2.500e-02         -0.4218
 252       3.039e+00      -7.715e+00       5.777e-01           0.138           0.079           0.987       2.382e-02         -0.2933
 253       3.120e+00      -7.716e+00       5.660e-01           0.150           0.080           0.985       2.202e-02         -0.1780
 254       3.194e+00      -7.717e+00       5.548e-01           0.152           0.080           0.985       1.965e-02         -0.0785
 255       3.258e+00      -7.717e+00       5.450e-01           0.148           0.080           0.986       1.678e-02          0.0030
 256       3.312e+00      -7.717e+00       5.372e-01           0.139           0.079           0.987       1.348e-02          0.0664
 257       3.353e+00      -7.718e+00       5.317e-01           0.126           0.078           0.989       9.858e-03          0.1171
 258       3.381e+00      -7.718e+00       5.282e-01           0.116           0.077           0.990       6.006e-03          0.1711
 259       3.395e+00      -7.718e+00       5.266e-01           0.112           0.077           0.991       2.018e-03          0.2069
Strip 7
 260       3.370e+00      -7.415e+00       5.056e-01          -0.036          -0.071          -0.997       2.467e-03          0.2443
 261       3.355e+00      -7.415e+00       5.060e-01          -0.020          -0.070          -0.997       7.336e-03          0.2622
 262       3.325e+00      -7.415e+00       5.059e-01           0.016          -0.066          -0.998       1.202e-02          0.2803
 263       3.282e+00      -7.415e+00       5.042e-01           0.059          -0.062          -0.996       1.644e-02          0.2696
 264       3.225e+00      -7.415e+00       5.000e-01           0.086          -0.059          -0.995       2.048e-02          0.2419
 265       3.158e+00      -7.416e+00       4.935e-01           0.104          -0.057          -0.993       2.402e-02          0.2105
 266       3.080e+00      -7.416e+00       4.850e-01           0.114          -0.056          -0.992       2.697e-02          0.1771
 267       2.995e+00      -7.417e+00       4.752e-01           0.114          -0.056          -0.992       2.922e-02          0.1452
 268       2.904e+00      -7.417e+00       4.653e-01           0.105          -0.057          -0.993       3.073e-02          0.1189
 269       2.809e+00      -7.417e+00       4.562e-01           0.087          -0.060          -0.994       3.146e-02          0.1017
 270       2.713e+00      -7.418e+00       4.491e-01           0.059          -0.066          -0.996       3.140e-02          0.0994
 271       2.619e+00      -7.418e+00       4.457e-01           0.014          -0.075          -0.997       3.059e-02          0.1338
 272       2.528e+00      -7.418e+00       4.461e-01          -0.023          -0.083          -0.996       2.907e-02          0.2030
 273       2.442e+00      -7.418e+00       4.493e-01          -0.055          -0.090          -0.994       2.687e-02          0.2922
 274       2.365e+00      -7.418e+00       4.547e-01          -0.086          -0.098          -0.991       2.402e-02          0.3998
 275       2.297e+00      -7.417e+00       4.617e-01          -0.122          -0.107          -0.987       2.061e-02          0.5307
 276       2.241e+00      -7.417e+00       4.699e-01          -0.170          -0.119          -0.978       1.671e-02          0.6904
 277       2.197e+00      -7.416e+00       4.789e-01          -0.247          -0.139          -0.959       1.247e-02          0.8633
 278       2.168e+00      -7.416e+00       4.888e-01          -0.414          -0.182          -0.892       8.151e-03          0.7640
 279       2.153e+00      -7.415e+00       5.004e-01          -0.838          -0.275          -0.472       5.085e-03         -1.3781
 280       2.153e+00      -7.415e+00       5.136e-01          -0.846          -0.212           0.490       5.148e-03         -5.4774
 281       2.168e+00      -7.414e+00       5.266e-01          -0.490          -0.084           0.868       8.497e-03         -4.2915
 282       2.197e+00      -7.413e+00       5.394e-01          -0.330          -0.034           0.943       1.277e-02         -2.5285
 283       2.241e+00      -7.413e+00       5.521e-01          -0.241          -0.008           0.970       1.693e-02         -1.8355
 284       2.297e+00      -7.412e+00       5.640e-01          -0.181           0.009           0.983       2.074e-02         -1.4768
 285       2.365e+00      -7.412e+00       5.746e-01          -0.132           0.022           0.991       2.408e-02         -1.2567
 286       2.442e+00      -7.411e+00       5.832e-01          -0.090           0.033           0.995       2.687e-02         -1.1069
 287       2.528e+00      -7.411e+00       5.890e-01          -0.048           0.043           0.998       2.902e-02         -0.9958
 288       2.619e+00      -7.411e+00       5.911e-01          -0.001           0.053           0.999       3.051e-02         -0.8939
 289       2.713e+00      -7.411e+00       5.886e-01           0.054           0.064           0.996       3.133e-02         -0.7554
 290       2.809e+00      -7.411e+00       5.816e-01           0.091           0.071           0.993       3.142e-02         -0.5968
 291       2.904e+00      -7.412e+00       5.716e-01           0.119           0.076           0.990       3.075e-02         -0.4487
 292       2.995e+00      -7.412e+00       5.599e-01           0.138           0.079           0.987       2.929e-02         -0.3144
 293       3.080e+00      -7.413e+00       5.475e-01           0.150           0.080           0.985       2.709e-02         -0.1936
 294       3.158e+00      -7.414e+00       5.357e-01           0.152           0.080           0.985       2.417e-02         -0.0891
 295       3.225e+00      -7.414e+00       5.254e-01           0.148           0.080           0.986       2.063e-02         -0.0033
 296       3.282e+00      -7.415e+00       5.172e-01           0.139           0.079           0.987       1.658e-02          0.0635
 297       3.325e+00      -7.415e+00       5.113e-01           0.126           0.078           0.989       1.212e-02          0.1171
 298       3.355e+00      -7.415e+00       5.077e-01           0.116           0.077           0.990       7.386e-03          0.1739
 299       3.370e+00      -7.415e+00       5.059e-01           0.112           0.077           0.991       2.481e-03          0.2113
Strip 8
 300       3.340e+00      -7.066e+00       4.819e-01          -0.036          -0.071          -0.997       2.969e-03          0.2481
 301       3.324e+00      -7.066e+00       4.823e-01          -0.020          -0.070          -0.997       8.830e-03          0.2669
 302       3.293e+00      -7.066e+00       4.822e-01           0.016          -0.066          -0.998       1.447e-02          0.2863
 303       3.247e+00      -7.066e+00       4.803e-01           0.059          -0.062          -0.996       1.979e-02          0.2768
 304       3.187e+00      -7.067e+00       4.759e-01           0.086          -0.059          -0.995       2.465e-02          0.2503
 305       3.116e+00      -7.067e+00       4.690e-01           0.104          -0.057          -0.993       2.891e-02          0.2204
 306       3.034e+00      -7.067e+00       4.600e-01           0.114          -0.056          -0.992       3.246e-02          0.1886
 307       2.943e+00      -7.068e+00       4.497e-01           0.114          -0.056          -0.992       3.517e-02          0.1583
 308       2.847e+00      -7.068e+00       4.391e-01           0.105          -0.057          -0.993       3.699e-02          0.1336
 309       2.747e+00      -7.069e+00       4.295e-01           0.087          -0.060          -0.994       3.786e-02          0.1178
 310       2.645e+00      -7.069e+00       4.221e-01           0.059          -0.066          -0.996       3.779e-02          0.1168
 311       2.545e+00      -7.069e+00       4.184e-01           0.014          -0.075          -0.997       3.681e-02          0.1519
 312       2.449e+00      -7.069e+00       4.188e-01          -0.023          -0.083          -0.996       3.499e-02          0.2212
 313       2.358e+00      -7.069e+00       4.222e-01          -0.055          -0.090          -0.994       3.234e-02          0.3102
 314       2.276e+00      -7.069e+00       4.280e-01          -0.086          -0.098          -0.991       2.892e-02          0.4173
 315       2.205e+00      -7.068e+00       4.354e-01          -0.122          -0.107          -0.987       2.480e-02          0.5472
 316       2.145e+00      -7.068e+00       4.440e-01          -0.170          -0.119          -0.978       2.012e-02          0.7052
 317       2.099e+00      -7.068e+00       4.536e-01          -0.247          -0.139          -0.959       1.501e-02          0.8724
 318       2.068e+00      -7.067e+00       4.640e-01          -0.413          -0.182          -0.892       9.816e-03          0.7436
 319       2.052e+00      -7.067e+00       4.764e-01          -0.837          -0.275          -0.473       6.124e-03         -1.4997
 320       2.052e+00      -7.066e+00       4.903e-01          -0.846          -0.212           0.489       6.193e-03         -5.6930
 321       2.068e+00      -7.065e+00       5.041e-01          -0.490          -0.084           0.868       1.022e-02         -4.4264
 322       2.099e+00      -7.065e+00       5.176e-01          -0.330          -0.034           0.943       1.537e-02         -2.6003
 323       2.145e+00      -7.064e+00       5.310e-01          -0.241          -0.008           0.970       2.037e-02         -1.8859
 324       2.205e+00      -7.064e+00       5.437e-01          -0.181           0.009           0.983       2.496e-02         -1.5175
 325       2.276e+00      -7.063e+00       5.549e-01          -0.132           0.022           0.991       2.898e-02         -1.2921
 326       2.358e+00      -7.063e+00       5.640e-01          -0.090           0.033           0.995       3.233e-02         -1.1392
 327       2.449e+00      -7.063e+00       5.701e-01          -0.048           0.043           0.998       3.493e-02         -1.0257
 328       2.545e+00      -7.062e+00       5.724e-01          -0.001           0.053           0.999       3.672e-02         -0.9216
 329       2.645e+00      -7.063e+00       5.697e-01           0.054           0.064           0.996       3.771e-02         -0.7801
 330       2.747e+00      -7.063e+00       5.623e-01           0.091           0.071           0.993       3.782e-02         -0.6181
 331       2.847e+00      -7.063e+00       5.518e-01           0.119           0.076           0.990       3.701e-02         -0.4664
 332       2.943e+00      -7.064e+00       5.393e-01           0.138           0.079           0.987       3.526e-02         -0.3286
 333       3.034e+00      -7.064e+00       5.262e-01           0.150           0.080           0.985       3.261e-02         -0.2044
 334       3.116e+00      -7.065e+00       5.137e-01           0.152           0.080           0.985       2.910e-02         -0.0969
 335       3.187e+00      -7.065e+00       5.028e-01           0.148           0.080           0.986       2.484e-02         -0.0086
 336       3.247e+00      -7.066e+00       4.941e-01           0.139           0.079           0.987       1.996e-02          0.0605
 337       3.293e+00      -7.066e+00       4.879e-01           0.126           0.078           0.989       1.459e-02          0.1160
 338       3.324e+00      -7.066e+00       4.840e-01           0.116           0.077           0.990       8.891e-03          0.1744
 339       3.340e+00      -7.066e+00       4.822e-01           0.112           0.077           0.991       2.987e-03          0.2129
Strip 9
 340       3.307e+00      -6.674e+00       4.552e-01          -0.036          -0.071          -0.997       3.515e-03          0.2503
 341       3.290e+00      -6.674e+00       4.556e-01          -0.020          -0.070          -0.997       1.045e-02          0.2698
 342       3.257e+00      -6.674e+00       4.555e-01           0.016          -0.066          -0.998       1.713e-02          0.2900
 343       3.208e+00      -6.674e+00       4.535e-01           0.059          -0.062          -0.996       2.343e-02          0.2812
 344       3.145e+00      -6.674e+00       4.488e-01           0.086          -0.059          -0.995       2.918e-02          0.2556
 345       3.068e+00      -6.675e+00       4.415e-01           0.104          -0.057          -0.993       3.422e-02          0.2265
 346       2.981e+00      -6.675e+00       4.319e-01           0.114          -0.056          -0.992       3.842e-02          0.1957
 347       2.885e+00      -6.675e+00       4.209e-01           0.114          -0.056          -0.992       4.163e-02          0.1664
 348       2.783e+00      -6.676e+00       4.097e-01           0.105          -0.057          -0.993       4.378e-02          0.1425
 349       2.677e+00      -6.676e+00       3.995e-01           0.087          -0.060          -0.994       4.482e-02          0.1276
 350       2.569e+00      -6.677e+00       3.916e-01           0.059          -0.066          -0.996       4.474e-02          0.1272
 351       2.462e+00      -6.677e+00       3.877e-01           0.014          -0.075          -0.997       4.358e-02          0.1626
 352       2.360e+00      -6.677e+00       3.881e-01          -0.023          -0.083          -0.996       4.142e-02          0.2318
 353       2.264e+00      -6.677e+00       3.918e-01          -0.055          -0.090          -0.994       3.829e-02          0.3205
 354       2.177e+00      -6.676e+00       3.978e-01          -0.086          -0.098          -0.991       3.424e-02          0.4271
 355       2.101e+00      -6.676e+00       4.057e-01          -0.122          -0.107          -0.987       2.937e-02          0.5564
 356       2.038e+00      -6.676e+00       4.149e-01          -0.170          -0.119          -0.978       2.382e-02          0.7131
 357       1.989e+00      -6.675e+00       4.251e-01          -0.246          -0.139          -0.959       1.777e-02          0.8771
 358       1.955e+00      -6.675e+00       4.362e-01          -0.413          -0.182          -0.892       1.163e-02          0.7330
 359       1.939e+00      -6.674e+00       4.493e-01          -0.837          -0.275          -0.474       7.254e-03         -1.5611
 360       1.939e+00      -6.674e+00       4.641e-01          -0.847          -0.212           0.488       7.327e-03         -5.8080
 361       1.955e+00      -6.673e+00       4.787e-01          -0.490          -0.084           0.868       1.209e-02         -4.4997
 362       1.989e+00      -6.673e+00       4.931e-01          -0.330          -0.034           0.943       1.818e-02         -2.6394
 363       2.038e+00      -6.672e+00       5.074e-01          -0.242          -0.008           0.970       2.411e-02         -1.9135
 364       2.101e+00      -6.672e+00       5.209e-01          -0.181           0.009           0.983       2.954e-02         -1.5400
 365       2.177e+00      -6.671e+00       5.328e-01          -0.132           0.022           0.991       3.430e-02         -1.3119
 366       2.264e+00      -6.671e+00       5.424e-01          -0.090           0.033           0.995       3.827e-02         -1.1575
 367       2.360e+00      -6.671e+00       5.489e-01          -0.048           0.043           0.998       4.134e-02         -1.0429
 368       2.462e+00      -6.670e+00       5.514e-01          -0.001           0.053           0.999       4.347e-02         -0.9376
 369       2.569e+00      -6.671e+00       5.485e-01           0.054           0.064           0.996       4.464e-02         -0.7946
 370       2.677e+00      -6.671e+00       5.407e-01           0.091           0.071           0.993       4.478e-02         -0.6306
 371       2.783e+00      -6.671e+00       5.294e-01           0.119           0.076           0.990       4.381e-02         -0.4770
 372       2.885e+00      -6.672e+00       5.162e-01           0.138           0.079           0.987       4.175e-02         -0.3372
 373       2.981e+00      -6.672e+00       5.022e-01           0.150           0.080           0.986       3.860e-02         -0.2112
 374       3.068e+00      -6.673e+00       4.889e-01           0.152           0.080           0.985       3.445e-02         -0.1019
 375       3.145e+00      -6.673e+00       4.774e-01           0.148           0.080           0.986       2.940e-02         -0.0120
 376       3.208e+00      -6.674e+00       4.681e-01           0.139           0.079           0.987       2.363e-02          0.0583
 377       3.257e+00      -6.674e+00       4.615e-01           0.126           0.078           0.989       1.727e-02          0.1149
 378       3.290e+00      -6.674e+00       4.574e-01           0.116           0.077           0.990       1.052e-02          0.1745
 379       3.307e+00      -6.674e+00       4.555e-01           0.112           0.077           0.991       3.536e-03          0.2136
Strip 10
 380       3.270e+00      -6.241e+00       4.256e-01          -0.036          -0.071          -0.997       4.104e-03          0.2517
 381       3.252e+00      -6.241e+00       4.260e-01          -0.020          -0.070          -0.997       1.220e-02          0.2715
 382       3.217e+00      -6.241e+00       4.260e-01           0.016          -0.066          -0.998       2.000e-02          0.2923
 383       3.165e+00      -6.241e+00       4.238e-01           0.059          -0.062          -0.996       2.735e-02          0.2839
 384       3.097e+00      -6.241e+00       4.188e-01           0.086          -0.059          -0.995       3.406e-02          0.2587
 385       3.016e+00      -6.241e+00       4.110e-01           0.104          -0.057          -0.993       3.995e-02          0.2301
 386       2.923e+00      -6.242e+00       4.008e-01           0.114          -0.056          -0.992       4.485e-02          0.1998
 387       2.821e+00      -6.242e+00       3.892e-01           0.114          -0.056          -0.992       4.860e-02          0.1709
 388       2.712e+00      -6.242e+00       3.772e-01           0.105          -0.057          -0.993       5.111e-02          0.1474
 389       2.599e+00      -6.243e+00       3.663e-01           0.087          -0.060          -0.994       5.232e-02          0.1328
 390       2.484e+00      -6.243e+00       3.579e-01           0.059          -0.066          -0.996       5.222e-02          0.1327
 391       2.371e+00      -6.243e+00       3.537e-01           0.014          -0.075          -0.997       5.087e-02          0.1680
 392       2.262e+00      -6.243e+00       3.542e-01          -0.023          -0.083          -0.996       4.836e-02          0.2369
 393       2.160e+00      -6.243e+00       3.581e-01          -0.055          -0.090          -0.994       4.470e-02          0.3253
 394       2.067e+00      -6.243e+00       3.646e-01          -0.086          -0.098          -0.991       3.997e-02          0.4314
 395       1.986e+00      -6.243e+00       3.730e-01          -0.122          -0.107          -0.987       3.429e-02          0.5601
 396       1.919e+00      -6.242e+00       3.828e-01          -0.170          -0.119          -0.978       2.781e-02          0.7162
 397       1.867e+00      -6.242e+00       3.936e-01          -0.246          -0.139          -0.959       2.076e-02          0.8790
 398       1.831e+00      -6.241e+00       4.054e-01          -0.413          -0.182          -0.892       1.358e-02          0.7311
 399       1.813e+00      -6.241e+00       4.194e-01          -0.836          -0.275          -0.475       8.473e-03         -1.5726
 400       1.813e+00      -6.240e+00       4.351e-01          -0.847          -0.213           0.487       8.550e-03         -5.8408
 401       1.831e+00      -6.240e+00       4.507e-01          -0.490          -0.085           0.867       1.411e-02         -4.5228
 402       1.867e+00      -6.239e+00       4.660e-01          -0.330          -0.034           0.943       2.122e-02         -2.6519
 403       1.919e+00      -6.239e+00       4.812e-01          -0.242          -0.008           0.970       2.813e-02         -1.9232
 404       1.986e+00      -6.238e+00       4.956e-01          -0.181           0.009           0.983       3.448e-02         -1.5486
 405       2.067e+00      -6.238e+00       5.083e-01          -0.132           0.022           0.991       4.004e-02         -1.3201
 406       2.160e+00      -6.238e+00       5.186e-01          -0.090           0.033           0.995       4.467e-02         -1.1654
 407       2.262e+00      -6.237e+00       5.255e-01          -0.048           0.043           0.998       4.826e-02         -1.0507
 408       2.371e+00      -6.237e+00       5.281e-01          -0.001           0.053           0.999       5.074e-02         -0.9452
 409       2.484e+00      -6.237e+00       5.250e-01           0.054           0.064           0.996       5.212e-02         -0.8017
 410       2.599e+00      -6.238e+00       5.167e-01           0.091           0.071           0.993       5.228e-02         -0.6370
 411       2.712e+00      -6.238e+00       5.047e-01           0.119           0.076           0.990       5.116e-02         -0.4825
 412       2.821e+00      -6.239e+00       4.906e-01           0.138           0.079           0.987       4.874e-02         -0.3417
 413       2.923e+00      -6.239e+00       4.758e-01           0.150           0.080           0.986       4.507e-02         -0.2147
 414       3.016e+00      -6.240e+00       4.616e-01           0.152           0.080           0.985       4.022e-02         -0.1046
 415       3.097e+00      -6.240e+00       4.493e-01           0.148           0.080           0.986       3.433e-02         -0.0139
 416       3.165e+00      -6.240e+00       4.394e-01           0.139           0.079           0.987       2.758e-02          0.0571
 417       3.217e+00      -6.241e+00       4.324e-01           0.126           0.078           0.989       2.017e-02          0.1144
 418       3.252e+00      -6.241e+00       4.280e-01           0.116           0.077           0.990       1.229e-02          0.1745
 419       3.270e+00      -6.241e+00       4.260e-01           0.112           0.077           0.991       4.128e-03          0.2139
Strip 11
 420       3.230e+00      -5.769e+00       3.935e-01          -0.036          -0.071          -0.997       4.733e-03          0.2527
 421       3.211e+00      -5.769e+00       3.939e-01          -0.020          -0.070          -0.997       1.408e-02          0.2726
 422       3.173e+00      -5.769e+00       3.938e-01           0.016          -0.066          -0.998       2.307e-02          0.2935
 423       3.118e+00      -5.769e+00       3.915e-01           0.059          -0.062          -0.996       3.155e-02          0.2854
 424       3.046e+00      -5.769e+00       3.862e-01           0.086          -0.059          -0.995       3.929e-02          0.2604
 425       2.959e+00      -5.769e+00       3.779e-01           0.104          -0.057          -0.993       4.608e-02          0.2320
 426       2.861e+00      -5.770e+00       3.670e-01           0.114          -0.056          -0.992       5.173e-02          0.2017
 427       2.752e+00      -5.770e+00       3.546e-01           0.114          -0.056          -0.992       5.605e-02          0.1730
 428       2.635e+00      -5.770e+00       3.418e-01           0.105          -0.057          -0.993       5.895e-02          0.1496
 429       2.515e+00      -5.771e+00       3.302e-01           0.087          -0.060          -0.994       6.034e-02          0.1349
 430       2.392e+00      -5.771e+00       3.212e-01           0.059          -0.066          -0.996       6.023e-02          0.1345
 431       2.272e+00      -5.771e+00       3.168e-01           0.014          -0.075          -0.997       5.868e-02          0.1696
 432       2.155e+00      -5.771e+00       3.173e-01          -0.023          -0.083          -0.996       5.578e-02          0.2381
 433       2.046e+00      -5.771e+00       3.215e-01          -0.055          -0.090          -0.994       5.157e-02          0.3260
 434       1.947e+00      -5.771e+00       3.284e-01          -0.086          -0.098          -0.991       4.611e-02          0.4316
 435       1.861e+00      -5.771e+00       3.373e-01          -0.122          -0.107          -0.987       3.956e-02          0.5598
 436       1.789e+00      -5.770e+00       3.478e-01          -0.170          -0.119          -0.978       3.209e-02          0.7155
 437       1.734e+00      -5.770e+00       3.593e-01          -0.246          -0.139          -0.959       2.395e-02          0.8787
 438       1.696e+00      -5.770e+00       3.719e-01          -0.413          -0.182          -0.893       1.567e-02          0.7363
 439       1.677e+00      -5.769e+00       3.868e-01          -0.836          -0.275          -0.475       9.779e-03         -1.5443
 440       1.677e+00      -5.769e+00       4.036e-01          -0.848          -0.213           0.486       9.856e-03         -5.8071
 441       1.696e+00      -5.768e+00       4.202e-01          -0.491          -0.085           0.867       1.627e-02         -4.5058
 442       1.734e+00      -5.768e+00       4.366e-01          -0.330          -0.034           0.943       2.446e-02         -2.6439
 443       1.789e+00      -5.767e+00       4.528e-01          -0.242          -0.008           0.970       3.244e-02         -1.9187
 444       1.861e+00      -5.767e+00       4.681e-01          -0.181           0.009           0.983       3.976e-02         -1.5462
 445       1.947e+00      -5.766e+00       4.816e-01          -0.132           0.022           0.991       4.617e-02         -1.3193
 446       2.046e+00      -5.766e+00       4.926e-01          -0.090           0.033           0.995       5.152e-02         -1.1656
 447       2.155e+00      -5.766e+00       5.000e-01          -0.048           0.043           0.998       5.567e-02         -1.0517
 448       2.272e+00      -5.766e+00       5.027e-01          -0.001           0.053           0.999       5.853e-02         -0.9467
 449       2.392e+00      -5.766e+00       4.995e-01           0.054           0.064           0.996       6.012e-02         -0.8034
 450       2.515e+00      -5.766e+00       4.906e-01           0.091           0.071           0.993       6.030e-02         -0.6388
 451       2.635e+00      -5.766e+00       4.778e-01           0.119           0.076           0.990       5.901e-02         -0.4842
 452       2.752e+00      -5.767e+00       4.628e-01           0.138           0.079           0.987       5.622e-02         -0.3433
 453       2.861e+00      -5.767e+00       4.470e-01           0.150           0.080           0.986       5.199e-02         -0.2160
 454       2.959e+00      -5.768e+00       4.318e-01           0.152           0.080           0.985       4.639e-02         -0.1055
 455       3.046e+00      -5.768e+00       4.187e-01           0.148           0.080           0.986       3.960e-02         -0.0146
 456       3.118e+00      -5.768e+00       4.082e-01           0.139           0.079           0.987       3.182e-02          0.0567
 457       3.173e+00      -5.769e+00       4.007e-01           0.126           0.078           0.989       2.326e-02          0.1142
 458       3.211e+00      -5.769e+00       3.961e-01           0.116           0.077           0.990       1.417e-02          0.1746
 459       3.230e+00      -5.769e+00       3.938e-01           0.112           0.077           0.991       4.761e-03          0.2143
Strip 12
 460       3.187e+00      -5.261e+00       3.589e-01          -0.036          -0.071          -0.997       5.400e-03          0.2533
 461       3.167e+00      -5.261e+00       3.594e-01          -0.020          -0.070          -0.997       1.606e-02          0.2733
 462       3.126e+00      -5.261e+00       3.593e-01           0.016          -0.066          -0.998       2.632e-02          0.2942
 463       3.067e+00      -5.262e+00       3.568e-01           0.059          -0.062          -0.996       3.599e-02          0.2861
 464       2.991e+00      -5.262e+00       3.511e-01           0.086          -0.059          -0.995       4.482e-02          0.2611
 465       2.898e+00      -5.262e+00       3.423e-01           0.104          -0.057          -0.993       5.257e-02          0.2326
 466       2.793e+00      -5.262e+00       3.307e-01           0.114          -0.056          -0.992       5.901e-02          0.2023
 467       2.677e+00      -5.263e+00       3.174e-01           0.114          -0.056          -0.992       6.395e-02          0.1734
 468       2.553e+00      -5.263e+00       3.038e-01           0.105          -0.057          -0.993       6.725e-02          0.1497
 469       2.424e+00      -5.263e+00       2.914e-01           0.087          -0.060          -0.994       6.884e-02          0.1346
 470       2.293e+00      -5.263e+00       2.818e-01           0.059          -0.066          -0.996       6.872e-02          0.1338
 471       2.165e+00      -5.264e+00       2.771e-01           0.014          -0.075          -0.997       6.694e-02          0.1683
 472       2.040e+00      -5.264e+00       2.776e-01          -0.023          -0.083          -0.996       6.364e-02          0.2363
 473       1.924e+00      -5.263e+00       2.820e-01          -0.055          -0.090          -0.994       5.883e-02          0.3236
 474       1.819e+00      -5.263e+00       2.894e-01          -0.086          -0.098          -0.991       5.261e-02          0.4286
 475       1.727e+00      -5.263e+00       2.990e-01          -0.122          -0.107          -0.987       4.514e-02          0.5562
 476       1.650e+00      -5.263e+00       3.101e-01          -0.170          -0.119          -0.978       3.661e-02          0.7118
 477       1.591e+00      -5.262e+00       3.224e-01          -0.246          -0.139          -0.959       2.733e-02          0.8767
 478       1.550e+00      -5.262e+00       3.359e-01          -0.412          -0.182          -0.893       1.789e-02          0.7473
 479       1.530e+00      -5.262e+00       3.518e-01          -0.835          -0.274          -0.476       1.116e-02         -1.4841
 480       1.530e+00      -5.261e+00       3.697e-01          -0.848          -0.213           0.485       1.124e-02         -5.7196
 481       1.550e+00      -5.261e+00       3.874e-01          -0.491          -0.085           0.867       1.855e-02         -4.4558
 482       1.591e+00      -5.260e+00       4.049e-01          -0.330          -0.034           0.943       2.790e-02         -2.6187
 483       1.650e+00      -5.260e+00       4.222e-01          -0.242          -0.008           0.970       3.700e-02         -1.9030
 484       1.727e+00      -5.259e+00       4.385e-01          -0.181           0.009           0.983       4.535e-02         -1.5354
 485       1.819e+00      -5.259e+00       4.530e-01          -0.132           0.022           0.991       5.267e-02         -1.3114
 486       1.924e+00      -5.259e+00       4.647e-01          -0.090           0.033           0.995       5.878e-02         -1.1598
 487       2.040e+00      -5.259e+00       4.726e-01          -0.048           0.043           0.998       6.351e-02         -1.0474
 488       2.165e+00      -5.259e+00       4.755e-01          -0.001           0.053           0.999       6.678e-02         -0.9435
 489       2.293e+00      -5.259e+00       4.720e-01           0.054           0.064           0.996       6.859e-02         -0.8012
 490       2.424e+00      -5.259e+00       4.625e-01           0.091           0.071           0.993       6.880e-02         -0.6373
 491       2.553e+00      -5.259e+00       4.489e-01           0.119           0.076           0.990       6.733e-02         -0.4833
 492       2.677e+00      -5.260e+00       4.328e-01           0.138           0.079           0.987       6.415e-02         -0.3427
 493       2.793e+00      -5.260e+00       4.160e-01           0.150           0.080           0.986       5.932e-02         -0.2156
 494       2.898e+00      -5.260e+00       3.998e-01           0.152           0.080           0.985       5.293e-02         -0.1053
 495       2.991e+00      -5.261e+00       3.858e-01           0.148           0.080           0.986       4.518e-02         -0.0144
 496       3.067e+00      -5.261e+00       3.746e-01           0.139           0.079           0.987       3.630e-02          0.0569
 497       3.126e+00      -5.261e+00       3.666e-01           0.126           0.078           0.989       2.654e-02          0.1144
 498       3.167e+00      -5.261e+00       3.616e-01           0.116           0.077           0.990       1.617e-02          0.1749
 499       3.187e+00      -5.261e+00       3.593e-01           0.112           0.077           0.991       5.432e-03          0.2145
Strip 13
 500       3.141e+00      -4.722e+00       3.221e-01          -0.036          -0.071          -0.997       6.099e-03          0.2537
 501       3.120e+00      -4.722e+00       3.226e-01          -0.020          -0.070          -0.997       1.814e-02          0.2736
 502       3.077e+00      -4.722e+00       3.225e-01           0.016          -0.066          -0.998       2.972e-02          0.2945
 503       3.014e+00      -4.722e+00       3.199e-01           0.059          -0.062          -0.996       4.064e-02          0.2862
 504       2.932e+00      -4.722e+00       3.138e-01           0.086          -0.059          -0.995       5.061e-02          0.2610
 505       2.833e+00      -4.722e+00       3.044e-01           0.104          -0.057          -0.993       5.936e-02          0.2324
 506       2.721e+00      -4.722e+00       2.920e-01           0.114          -0.056          -0.992       6.663e-02          0.2017
 507       2.597e+00      -4.723e+00       2.778e-01           0.114          -0.056          -0.992       7.221e-02          0.1724
 508       2.465e+00      -4.723e+00       2.633e-01           0.105          -0.057          -0.993       7.594e-02          0.1482
 509       2.327e+00      -4.723e+00       2.501e-01           0.087          -0.060          -0.994       7.774e-02          0.1325
 510       2.188e+00      -4.723e+00       2.399e-01           0.059          -0.066          -0.996       7.760e-02          0.1310
 511       2.051e+00      -4.723e+00       2.348e-01           0.014          -0.075          -0.997       7.560e-02          0.1648
 512       1.918e+00      -4.723e+00       2.354e-01          -0.023          -0.083          -0.996       7.188e-02          0.2321
 513       1.794e+00      -4.723e+00       2.401e-01          -0.055          -0.090          -0.994       6.645e-02          0.3187
 514       1.682e+00      -4.723e+00       2.480e-01          -0.086          -0.098          -0.991       5.942e-02          0.4230
 515       1.584e+00      -4.723e+00       2.582e-01          -0.122          -0.107          -0.987       5.098e-02          0.5500
 516       1.502e+00      -4.723e+00       2.701e-01          -0.170          -0.119          -0.978       4.135e-02          0.7055
 517       1.439e+00      -4.722e+00       2.832e-01          -0.246          -0.139          -0.959       3.087e-02          0.8731
 518       1.396e+00      -4.722e+00       2.975e-01          -0.412          -0.182          -0.893       2.021e-02          0.7625
 519       1.374e+00      -4.722e+00       3.145e-01          -0.835          -0.274          -0.477       1.261e-02         -1.3982
 520       1.374e+00      -4.721e+00       3.336e-01          -0.849          -0.213           0.484       1.269e-02         -5.5874
 521       1.396e+00      -4.721e+00       3.526e-01          -0.491          -0.085           0.867       2.094e-02         -4.3785
 522       1.439e+00      -4.721e+00       3.712e-01          -0.331          -0.034           0.943       3.150e-02         -2.5793
 523       1.502e+00      -4.720e+00       3.896e-01          -0.242          -0.008           0.970       4.177e-02         -1.8778
 524       1.584e+00      -4.720e+00       4.071e-01          -0.181           0.009           0.983       5.121e-02         -1.5174
 525       1.682e+00      -4.719e+00       4.225e-01          -0.132           0.022           0.991       5.947e-02         -1.2978
 526       1.794e+00      -4.719e+00       4.349e-01          -0.090           0.033           0.995       6.637e-02         -1.1492
 527       1.918e+00      -4.719e+00       4.434e-01          -0.048           0.043           0.998       7.171e-02         -1.0389
 528       2.051e+00      -4.719e+00       4.465e-01          -0.001           0.053           0.999       7.541e-02         -0.9367
 529       2.188e+00      -4.719e+00       4.428e-01           0.054           0.064           0.996       7.746e-02         -0.7959
 530       2.327e+00      -4.719e+00       4.327e-01           0.091           0.071           0.993       7.771e-02         -0.6334
 531       2.465e+00      -4.720e+00       4.181e-01           0.119           0.076           0.990       7.604e-02         -0.4803
 532       2.597e+00      -4.720e+00       4.010e-01           0.138           0.079           0.987       7.245e-02         -0.3404
 533       2.721e+00      -4.720e+00       3.830e-01           0.150           0.080           0.986       6.699e-02         -0.2140
 534       2.833e+00      -4.721e+00       3.658e-01           0.152           0.080           0.985       5.978e-02         -0.1041
 535       2.932e+00      -4.721e+00       3.508e-01           0.148           0.080           0.986       5.103e-02         -0.0135
 536       3.014e+00      -4.721e+00       3.389e-01           0.139           0.079           0.987       4.100e-02          0.0575
 537       3.077e+00      -4.721e+00       3.303e-01           0.126           0.078           0.989       2.998e-02          0.1148
 538       3.120e+00      -4.722e+00       3.250e-01           0.116           0.077           0.990       1.826e-02          0.1752
 539       3.141e+00      -4.722e+00       3.225e-01           0.112           0.077           0.991       6.135e-03          0.2147
Strip 14
 540       3.093e+00      -4.153e+00       2.833e-01          -0.036          -0.071          -0.997       6.821e-03          0.2539
 541       3.070e+00      -4.153e+00       2.839e-01          -0.020          -0.070          -0.997       2.028e-02          0.2737
 542       3.024e+00      -4.153e+00       2.838e-01           0.016          -0.066          -0.998       3.324e-02          0.2945
 543       2.957e+00      -4.153e+00       2.810e-01           0.059          -0.062          -0.996       4.545e-02          0.2860
 544       2.870e+00      -4.153e+00       2.745e-01           0.086          -0.059          -0.995       5.660e-02          0.2605
 545       2.765e+00      -4.153e+00       2.644e-01           0.104          -0.057          -0.993       6.639e-02          0.2314
 546       2.645e+00      -4.153e+00       2.512e-01           0.114          -0.056          -0.992       7.452e-02          0.2003
 547       2.513e+00      -4.153e+00       2.361e-01           0.114          -0.056          -0.992       8.075e-02          0.1704
 548       2.372e+00      -4.154e+00       2.206e-01           0.105          -0.057          -0.993       8.492e-02          0.1455
 549       2.225e+00      -4.154e+00       2.065e-01           0.087          -0.060          -0.994       8.694e-02          0.1289
 550       2.077e+00      -4.154e+00       1.957e-01           0.059          -0.066          -0.996       8.678e-02          0.1265
 551       1.931e+00      -4.154e+00       1.903e-01           0.014          -0.075          -0.997       8.455e-02          0.1594
 552       1.790e+00      -4.154e+00       1.909e-01          -0.023          -0.083          -0.996       8.039e-02          0.2259
 553       1.658e+00      -4.154e+00       1.959e-01          -0.055          -0.090          -0.994       7.432e-02          0.3116
 554       1.538e+00      -4.154e+00       2.043e-01          -0.086          -0.098          -0.991       6.646e-02          0.4151
 555       1.433e+00      -4.154e+00       2.152e-01          -0.122          -0.107          -0.987       5.702e-02          0.5414
 556       1.346e+00      -4.154e+00       2.279e-01          -0.170          -0.119          -0.978       4.626e-02          0.6970
 557       1.278e+00      -4.153e+00       2.419e-01          -0.246          -0.139          -0.959       3.454e-02          0.8679
 558       1.232e+00      -4.153e+00       2.571e-01          -0.412          -0.182          -0.893       2.261e-02          0.7809
 559       1.209e+00      -4.153e+00       2.752e-01          -0.835          -0.274          -0.478       1.411e-02         -1.2907
 560       1.209e+00      -4.152e+00       2.956e-01          -0.849          -0.213           0.484       1.418e-02         -5.4163
 561       1.232e+00      -4.152e+00       3.158e-01          -0.491          -0.085           0.867       2.340e-02         -4.2771
 562       1.278e+00      -4.152e+00       3.356e-01          -0.331          -0.034           0.943       3.522e-02         -2.5276
 563       1.346e+00      -4.151e+00       3.553e-01          -0.242          -0.008           0.970       4.671e-02         -1.8444
 564       1.433e+00      -4.151e+00       3.739e-01          -0.181           0.009           0.983       5.726e-02         -1.4933
 565       1.538e+00      -4.151e+00       3.903e-01          -0.132           0.022           0.991       6.651e-02         -1.2794
 566       1.658e+00      -4.151e+00       4.036e-01          -0.090           0.033           0.995       7.422e-02         -1.1345
 567       1.790e+00      -4.150e+00       4.126e-01          -0.048           0.043           0.998       8.020e-02         -1.0270
 568       1.931e+00      -4.150e+00       4.160e-01          -0.001           0.053           0.999       8.434e-02         -0.9270
[...]
1472       2.701e+00       8.183e+00       5.059e-01          -0.023           0.083          -0.996       1.407e-02          0.0687
1473       2.626e+00       8.183e+00       5.087e-01          -0.055           0.090          -0.994       1.301e-02          0.1542
1474       2.559e+00       8.182e+00       5.134e-01          -0.086           0.098          -0.991       1.163e-02          0.2608
1475       2.500e+00       8.182e+00       5.195e-01          -0.122           0.107          -0.987       9.972e-03          0.3947
1476       2.451e+00       8.182e+00       5.266e-01          -0.170           0.119          -0.978       8.085e-03          0.5647
1477       2.413e+00       8.181e+00       5.345e-01          -0.247           0.139          -0.959       6.030e-03          0.7720
1478       2.387e+00       8.181e+00       5.431e-01          -0.414           0.182          -0.892       3.941e-03          0.8572
1479       2.374e+00       8.180e+00       5.532e-01          -0.839           0.275          -0.470       2.458e-03         -0.5970
1480       2.374e+00       8.179e+00       5.647e-01          -0.845           0.211           0.492       2.496e-03         -4.0813
1481       2.387e+00       8.178e+00       5.760e-01          -0.489           0.084           0.868       4.120e-03         -3.4118
1482       2.413e+00       8.178e+00       5.871e-01          -0.329           0.034           0.944       6.191e-03         -2.0464
1483       2.451e+00       8.177e+00       5.982e-01          -0.241           0.008           0.970       8.203e-03         -1.4888
1484       2.500e+00       8.176e+00       6.086e-01          -0.181          -0.009           0.983       1.005e-02         -1.1913
1485       2.559e+00       8.176e+00       6.178e-01          -0.132          -0.023           0.991       1.166e-02         -1.0046
1486       2.626e+00       8.175e+00       6.253e-01          -0.090          -0.033           0.995       1.301e-02         -0.8768
1487       2.701e+00       8.175e+00       6.303e-01          -0.047          -0.043           0.998       1.405e-02         -0.7841
1488       2.780e+00       8.175e+00       6.322e-01          -0.001          -0.053           0.999       1.477e-02         -0.7018
1489       2.862e+00       8.175e+00       6.300e-01           0.054          -0.064           0.996       1.517e-02         -0.5893
1490       2.946e+00       8.176e+00       6.239e-01           0.091          -0.071           0.993       1.521e-02         -0.4613
1491       3.028e+00       8.176e+00       6.152e-01           0.119          -0.076           0.990       1.488e-02         -0.3445
1492       3.108e+00       8.177e+00       6.050e-01           0.138          -0.079           0.987       1.418e-02         -0.2409
1493       3.182e+00       8.177e+00       5.942e-01           0.150          -0.080           0.985       1.311e-02         -0.1490
1494       3.250e+00       8.178e+00       5.839e-01           0.152          -0.080           0.985       1.170e-02         -0.0701
1495       3.309e+00       8.179e+00       5.749e-01           0.148          -0.080           0.986       9.988e-03         -0.0057
1496       3.358e+00       8.179e+00       5.678e-01           0.139          -0.079           0.987       8.025e-03          0.0444
1497       3.395e+00       8.179e+00       5.627e-01           0.126          -0.078           0.989       5.868e-03          0.0846
1498       3.421e+00       8.180e+00       5.595e-01           0.116          -0.077           0.990       3.576e-03          0.1295
1499       3.434e+00       8.180e+00       5.580e-01           0.112          -0.077           0.991       1.201e-03          0.1601
Strip 38
1500       3.448e+00       8.335e+00       5.684e-01          -0.036           0.071          -0.997       8.326e-04          0.0901
1501       3.435e+00       8.335e+00       5.687e-01          -0.020           0.070          -0.997       2.476e-03          0.1004
1502       3.410e+00       8.335e+00       5.686e-01           0.016           0.066          -0.998       4.059e-03          0.1078
1503       3.373e+00       8.335e+00       5.671e-01           0.059           0.062          -0.996       5.551e-03          0.0895
1504       3.326e+00       8.336e+00       5.636e-01           0.086           0.059          -0.995       6.913e-03          0.0564
1505       3.268e+00       8.336e+00       5.581e-01           0.104           0.057          -0.993       8.110e-03          0.0221
1506       3.203e+00       8.337e+00       5.509e-01           0.114           0.056          -0.992       9.104e-03         -0.0119
1507       3.131e+00       8.337e+00       5.427e-01           0.114           0.056          -0.992       9.866e-03         -0.0425
1508       3.054e+00       8.338e+00       5.343e-01           0.105           0.057          -0.993       1.038e-02         -0.0676
1509       2.974e+00       8.338e+00       5.266e-01           0.087           0.060          -0.994       1.062e-02         -0.0858
1510       2.893e+00       8.338e+00       5.207e-01           0.059           0.066          -0.996       1.060e-02         -0.0937
1511       2.813e+00       8.339e+00       5.177e-01           0.014           0.075          -0.997       1.032e-02         -0.0694
1512       2.736e+00       8.339e+00       5.180e-01          -0.023           0.083          -0.996       9.812e-03         -0.0133
1513       2.664e+00       8.338e+00       5.208e-01          -0.055           0.090          -0.994       9.067e-03          0.0615
1514       2.598e+00       8.338e+00       5.254e-01          -0.086           0.098          -0.991       8.106e-03          0.1573
1515       2.541e+00       8.338e+00       5.313e-01          -0.122           0.107          -0.987       6.951e-03          0.2844
1516       2.493e+00       8.337e+00       5.382e-01          -0.170           0.119          -0.978       5.635e-03          0.4561
1517       2.457e+00       8.337e+00       5.458e-01          -0.247           0.139          -0.959       4.203e-03          0.6807
1518       2.432e+00       8.336e+00       5.541e-01          -0.414           0.182          -0.892       2.746e-03          0.8572
1519       2.419e+00       8.336e+00       5.640e-01          -0.839           0.275          -0.469       1.713e-03         -0.2287
1520       2.419e+00       8.335e+00       5.751e-01          -0.844           0.211           0.492       1.741e-03         -3.3629
1521       2.432e+00       8.334e+00       5.861e-01          -0.489           0.084           0.868       2.873e-03         -2.9473
1522       2.457e+00       8.334e+00       5.969e-01          -0.329           0.034           0.944       4.317e-03         -1.7784
1523       2.493e+00       8.333e+00       6.076e-01          -0.241           0.008           0.970       5.720e-03         -1.2870
1524       2.541e+00       8.332e+00       6.177e-01          -0.181          -0.009           0.983       7.006e-03         -1.0211
1525       2.598e+00       8.332e+00       6.266e-01          -0.132          -0.023           0.991       8.132e-03         -0.8555
1526       2.664e+00       8.331e+00       6.338e-01          -0.090          -0.033           0.995       9.071e-03         -0.7465
1527       2.736e+00       8.331e+00       6.387e-01          -0.047          -0.043           0.998       9.796e-03         -0.6721
1528       2.813e+00       8.331e+00       6.406e-01          -0.001          -0.053           0.999       1.030e-02         -0.6087
1529       2.893e+00       8.331e+00       6.384e-01           0.054          -0.064           0.996       1.057e-02         -0.5183
1530       2.974e+00       8.331e+00       6.325e-01           0.091          -0.071           0.993       1.060e-02         -0.4157
1531       3.054e+00       8.332e+00       6.241e-01           0.119          -0.076           0.990       1.037e-02         -0.3260
1532       3.131e+00       8.332e+00       6.142e-01           0.138          -0.079           0.987       9.884e-03         -0.2500
1533       3.203e+00       8.333e+00       6.037e-01           0.150          -0.080           0.985       9.139e-03         -0.1843
1534       3.268e+00       8.334e+00       5.937e-01           0.152          -0.080           0.985       8.156e-03         -0.1285
1535       3.326e+00       8.334e+00       5.850e-01           0.148          -0.080           0.986       6.962e-03         -0.0825
1536       3.373e+00       8.335e+00       5.781e-01           0.139          -0.079           0.987       5.595e-03         -0.0460
1537       3.410e+00       8.335e+00       5.732e-01           0.126          -0.078           0.989       4.091e-03         -0.0153
1538       3.435e+00       8.335e+00       5.701e-01           0.116          -0.077           0.990       2.493e-03          0.0224
1539       3.448e+00       8.335e+00       5.686e-01           0.112          -0.077           0.991       8.373e-04          0.0492
Strip 39
1540       3.456e+00       8.440e+00       5.755e-01          -0.036           0.071          -0.997       4.912e-04         -0.3476
1541       3.444e+00       8.440e+00       5.758e-01          -0.020           0.070          -0.997       1.461e-03         -0.3402
1542       3.419e+00       8.440e+00       5.757e-01           0.016           0.066          -0.998       2.394e-03         -0.3289
1543       3.383e+00       8.440e+00       5.742e-01           0.059           0.062          -0.996       3.275e-03         -0.3192
1544       3.337e+00       8.440e+00       5.708e-01           0.086           0.059          -0.995       4.079e-03         -0.2977
1545       3.281e+00       8.440e+00       5.654e-01           0.104           0.057          -0.993       4.785e-03         -0.2645
1546       3.217e+00       8.441e+00       5.584e-01           0.114           0.056          -0.992       5.371e-03         -0.2339
1547       3.146e+00       8.441e+00       5.503e-01           0.114           0.056          -0.992       5.821e-03         -0.2126
1548       3.071e+00       8.442e+00       5.421e-01           0.105           0.057          -0.993       6.122e-03         -0.1992
1549       2.992e+00       8.443e+00       5.346e-01           0.087           0.060          -0.994       6.266e-03         -0.1900
1550       2.913e+00       8.443e+00       5.288e-01           0.059           0.066          -0.996       6.254e-03         -0.1807
1551       2.835e+00       8.443e+00       5.259e-01           0.014           0.075          -0.997       6.091e-03         -0.1528
1552       2.759e+00       8.443e+00       5.262e-01          -0.023           0.083          -0.996       5.788e-03         -0.1057
1553       2.689e+00       8.443e+00       5.289e-01          -0.055           0.090          -0.994       5.349e-03         -0.0500
1554       2.625e+00       8.443e+00       5.334e-01          -0.086           0.098          -0.991       4.782e-03          0.0183
1555       2.569e+00       8.442e+00       5.392e-01          -0.122           0.107          -0.987       4.101e-03          0.1122
1556       2.522e+00       8.442e+00       5.459e-01          -0.170           0.119          -0.978       3.324e-03          0.2552
1557       2.486e+00       8.441e+00       5.534e-01          -0.247           0.139          -0.959       2.479e-03          0.4781
1558       2.462e+00       8.441e+00       5.615e-01          -0.414           0.182          -0.892       1.620e-03          0.7500
1559       2.449e+00       8.440e+00       5.712e-01          -0.840           0.275          -0.469       1.010e-03          0.1080
1560       2.449e+00       8.439e+00       5.820e-01          -0.844           0.211           0.493       1.027e-03         -2.5585
1561       2.462e+00       8.439e+00       5.928e-01          -0.488           0.084           0.869       1.696e-03         -2.4035
1562       2.486e+00       8.438e+00       6.034e-01          -0.329           0.034           0.944       2.547e-03         -1.4420
1563       2.522e+00       8.437e+00       6.139e-01          -0.241           0.008           0.970       3.375e-03         -1.0298
1564       2.569e+00       8.437e+00       6.238e-01          -0.181          -0.009           0.984       4.134e-03         -0.8170
1565       2.625e+00       8.436e+00       6.325e-01          -0.132          -0.023           0.991       4.798e-03         -0.6951
1566       2.689e+00       8.436e+00       6.396e-01          -0.090          -0.033           0.995       5.352e-03         -0.6214
1567       2.759e+00       8.435e+00       6.444e-01          -0.047          -0.043           0.998       5.780e-03         -0.5749
1568       2.835e+00       8.435e+00       6.462e-01          -0.001          -0.053           0.999       6.075e-03         -0.5364
1569       2.913e+00       8.435e+00       6.441e-01           0.054          -0.064           0.996       6.237e-03         -0.4766
1570       2.992e+00       8.436e+00       6.383e-01           0.091          -0.071           0.993       6.255e-03         -0.4148
1571       3.071e+00       8.436e+00       6.300e-01           0.119          -0.076           0.990       6.120e-03         -0.3772
1572       3.146e+00       8.437e+00       6.203e-01           0.138          -0.079           0.987       5.831e-03         -0.3678
1573       3.217e+00       8.437e+00       6.101e-01           0.150          -0.080           0.985       5.392e-03         -0.3855
1574       3.281e+00       8.438e+00       6.003e-01           0.153          -0.080           0.985       4.812e-03         -0.4243
1575       3.337e+00       8.439e+00       5.918e-01           0.148          -0.080           0.986       4.108e-03         -0.4688
1576       3.383e+00       8.439e+00       5.850e-01           0.139          -0.079           0.987       3.301e-03         -0.4995
1577       3.419e+00       8.439e+00       5.802e-01           0.126          -0.078           0.989       2.413e-03         -0.5046
1578       3.444e+00       8.440e+00       5.772e-01           0.116          -0.077           0.990       1.471e-03         -0.4827
1579       3.456e+00       8.440e+00       5.757e-01           0.112          -0.077           0.991       4.940e-04         -0.4618
Strip 40
1580       3.461e+00       8.492e+00       5.790e-01          -0.036           0.071          -0.997       1.623e-04         -0.9034
1581       3.449e+00       8.492e+00       5.793e-01          -0.020           0.070          -0.997       4.827e-04         -0.9102
1582       3.424e+00       8.492e+00       5.793e-01           0.016           0.066          -0.998       7.913e-04         -0.9157
1583       3.389e+00       8.492e+00       5.778e-01           0.059           0.062          -0.996       1.082e-03         -0.8929
1584       3.343e+00       8.492e+00       5.744e-01           0.086           0.059          -0.995       1.348e-03         -0.8019
1585       3.287e+00       8.493e+00       5.691e-01           0.104           0.057          -0.993       1.581e-03         -0.6625
1586       3.224e+00       8.493e+00       5.621e-01           0.114           0.056          -0.992       1.775e-03         -0.5230
1587       3.154e+00       8.494e+00       5.542e-01           0.114           0.056          -0.992       1.924e-03         -0.4112
1588       3.079e+00       8.494e+00       5.460e-01           0.105           0.057          -0.993       2.023e-03         -0.3318
1589       3.002e+00       8.495e+00       5.386e-01           0.087           0.060          -0.994       2.071e-03         -0.2782
1590       2.923e+00       8.495e+00       5.328e-01           0.059           0.066          -0.996       2.067e-03         -0.2395
1591       2.846e+00       8.495e+00       5.300e-01           0.014           0.075          -0.997       2.013e-03         -0.2001
1592       2.771e+00       8.495e+00       5.303e-01          -0.023           0.083          -0.996       1.913e-03         -0.1573
1593       2.701e+00       8.495e+00       5.330e-01          -0.055           0.090          -0.994       1.768e-03         -0.1143
1594       2.638e+00       8.495e+00       5.374e-01          -0.086           0.098          -0.991       1.580e-03         -0.0647
1595       2.582e+00       8.495e+00       5.431e-01          -0.122           0.107          -0.987       1.355e-03          0.0020
1596       2.536e+00       8.494e+00       5.498e-01          -0.170           0.119          -0.978       1.099e-03          0.1055
1597       2.501e+00       8.494e+00       5.572e-01          -0.247           0.139          -0.959       8.193e-04          0.2848
1598       2.477e+00       8.493e+00       5.652e-01          -0.414           0.182          -0.892       5.353e-04          0.5872
1599       2.464e+00       8.492e+00       5.748e-01          -0.840           0.275          -0.468       3.339e-04          0.4016
1600       2.464e+00       8.492e+00       5.855e-01          -0.844           0.211           0.493       3.395e-04         -1.7183
1601       2.477e+00       8.491e+00       5.962e-01          -0.488           0.084           0.869       5.604e-04         -1.8163
1602       2.501e+00       8.490e+00       6.066e-01          -0.329           0.034           0.944       8.419e-04         -1.1028
1603       2.536e+00       8.490e+00       6.170e-01          -0.241           0.008           0.970       1.115e-03         -0.8099
1604       2.582e+00       8.489e+00       6.268e-01          -0.181          -0.009           0.984       1.366e-03         -0.6686
1605       2.638e+00       8.488e+00       6.355e-01          -0.132          -0.023           0.991       1.586e-03         -0.5896
1606       2.701e+00       8.488e+00       6.425e-01          -0.090          -0.033           0.995       1.769e-03         -0.5417
1607       2.771e+00       8.488e+00       6.472e-01          -0.047          -0.043           0.998       1.910e-03         -0.5113
1608       2.846e+00       8.487e+00       6.490e-01          -0.001          -0.053           0.999       2.008e-03         -0.4847
1609       2.923e+00       8.488e+00       6.469e-01           0.054          -0.064           0.996       2.061e-03         -0.4440
1610       3.002e+00       8.488e+00       6.412e-01           0.091          -0.071           0.993       2.067e-03         -0.4122
1611       3.079e+00       8.488e+00       6.330e-01           0.119          -0.076           0.990       2.022e-03         -0.4123
1612       3.154e+00       8.489e+00       6.234e-01           0.138          -0.079           0.987       1.927e-03         -0.4530
1613       3.224e+00       8.490e+00       6.133e-01           0.150          -0.080           0.985       1.782e-03         -0.5448
1614       3.287e+00       8.490e+00       6.036e-01           0.153          -0.080           0.985       1.590e-03         -0.6895
1615       3.343e+00       8.491e+00       5.952e-01           0.148          -0.080           0.986       1.357e-03         -0.8633
1616       3.389e+00       8.492e+00       5.885e-01           0.139          -0.079           0.987       1.091e-03         -1.0177
1617       3.424e+00       8.492e+00       5.837e-01           0.126          -0.078           0.989       7.976e-04         -1.1056
1618       3.449e+00       8.492e+00       5.807e-01           0.116          -0.077           0.990       4.860e-04         -1.1221
1619       3.461e+00       8.492e+00       5.793e-01           0.112          -0.077           0.991       1.632e-04         -1.1148










