xflr5 v6.61

Plane Name
T1-10.0 m/s-Panel-Inviscid
QInf  =   10.000000 m/s
Alpha =    0.000000
Beta  =    0.000°
Phi   =    0.000°
Ctrl  =    0.000
CL    =    0.287207
Cy    =   -0.000000
Cd    =    0.002859     ICd   =    0.002859     PCd   =    0.000000
Cl   = -8.30621e-16
Cm   =   -0.302502
ICn   =    0.000000     PCn   =    0.000000 
XCP   =    2.119696     YCP   =    0.000000     ZCP   =    0.415648  
XNP   =    0.000000
Bending =  937.244861

Main Wing
  y-span        Chord      Ai         Cl        PCd          ICd        CmGeom    CmAirf@chord/4    XTrtop    XTrBot      XCP       BM
   -8.5119     1.0027    -2.620    0.087357    0.000000    0.003998   -0.323230   -0.035303     0.0000    0.0000    0.5797    0.0000
   -8.4594     1.0135    -2.044    0.144366    0.000000    0.005154   -0.448806   -0.051291     0.0000    0.0000    0.5932    0.0075
   -8.3547     1.0349    -1.558    0.193809    0.000000    0.005271   -0.544915   -0.059838     0.0000    0.0000    0.5684    0.0975
   -8.1986     1.0670    -1.199    0.231858    0.000000    0.004854   -0.623821   -0.067879     0.0000    0.0000    0.5513    0.4864
   -7.9919     1.1094    -0.942    0.259676    0.000000    0.004271   -0.665434   -0.073387     0.0000    0.0000    0.5387    1.5797
   -7.7360     1.1620    -0.761    0.279190    0.000000    0.003711   -0.673476   -0.076789     0.0000    0.0000    0.5294    3.9974
   -7.4323     1.2243    -0.637    0.292298    0.000000    0.003252   -0.656665   -0.078817     0.0000    0.0000    0.5230    8.5843
   -7.0828     1.2960    -0.555    0.300585    0.000000    0.002910   -0.623350   -0.080015     0.0000    0.0000    0.5190   16.4101
   -6.6897     1.3768    -0.502    0.305281    0.000000    0.002675   -0.580187   -0.080721     0.0000    0.0000    0.5170   28.7598
   -6.2553     1.4659    -0.471    0.307301    0.000000    0.002529   -0.532064   -0.081128     0.0000    0.0000    0.5165   47.1156
   -5.7823     1.5630    -0.457    0.307300    0.000000    0.002452   -0.482390   -0.081349     0.0000    0.0000    0.5172   73.1281
   -5.2737     1.6674    -0.455    0.305736    0.000000    0.002430   -0.433421   -0.081450     0.0000    0.0000    0.5190   108.5769
   -4.7326     1.7785    -0.463    0.302915    0.000000    0.002448   -0.386579   -0.081468     0.0000    0.0000    0.5218   155.3198
   -4.1623     1.8956    -0.478    0.299018    0.000000    0.002495   -0.342680   -0.081422     0.0000    0.0000    0.5254   215.2288
   -3.5663     2.0179    -0.499    0.294159    0.000000    0.002562   -0.302168   -0.081333     0.0000    0.0000    0.5299   290.1154
   -2.9484     2.1448    -0.524    0.288372    0.000000    0.002641   -0.265215   -0.081214     0.0000    0.0000    0.5354   381.6462
   -2.3122     2.2753    -0.554    0.281631    0.000000    0.002723   -0.231842   -0.081091     0.0000    0.0000    0.5422   491.2513
   -1.6619     2.4089    -0.585    0.273846    0.000000    0.002799   -0.202019   -0.081022     0.0000    0.0000    0.5508   620.0280
   -1.0012     2.5445    -0.618    0.264859    0.000000    0.002863   -0.175782   -0.081156     0.0000    0.0000    0.5620   768.6441
   -0.3344     2.6813    -0.663    0.253932    0.000000    0.002956   -0.153451   -0.081886     0.0000    0.0000    0.5778   937.2449
    0.3344     2.6813    -0.663    0.253932    0.000000    0.002956   -0.153451   -0.081886     0.0000    0.0000    0.5778   937.2449
    1.0012     2.5445    -0.618    0.264859    0.000000    0.002863   -0.175782   -0.081156     0.0000    0.0000    0.5620   768.6441
    1.6619     2.4089    -0.585    0.273846    0.000000    0.002799   -0.202019   -0.081022     0.0000    0.0000    0.5508   620.0280
    2.3122     2.2753    -0.554    0.281631    0.000000    0.002723   -0.231842   -0.081091     0.0000    0.0000    0.5422   491.2513
    2.9484     2.1448    -0.524    0.288372    0.000000    0.002641   -0.265215   -0.081214     0.0000    0.0000    0.5354   381.6462
    3.5663     2.0179    -0.499    0.294159    0.000000    0.002562   -0.302168   -0.081333     0.0000    0.0000    0.5299   290.1154
    4.1623     1.8956    -0.478    0.299018    0.000000    0.002495   -0.342680   -0.081422     0.0000    0.0000    0.5254   215.2288
    4.7326     1.7785    -0.463    0.302915    0.000000    0.002448   -0.386579   -0.081468     0.0000    0.0000    0.5218   155.3198
    5.2737     1.6674    -0.455    0.305736    0.000000    0.002430   -0.433421   -0.081450     0.0000    0.0000    0.5190   108.5769
    5.7823     1.5630    -0.457    0.307300    0.000000    0.002452   -0.482390   -0.081349     0.0000    0.0000    0.5172   73.1281
    6.2553     1.4659    -0.471    0.307301    0.000000    0.002529   -0.532064   -0.081128     0.0000    0.0000    0.5165   47.1156
    6.6897     1.3768    -0.502    0.305281    0.000000    0.002675   -0.580187   -0.080721     0.0000    0.0000    0.5170   28.7598
    7.0828     1.2960    -0.555    0.300585    0.000000    0.002910   -0.623350   -0.080015     0.0000    0.0000    0.5190   16.4101
    7.4323     1.2243    -0.637    0.292298    0.000000    0.003252   -0.656665   -0.078817     0.0000    0.0000    0.5230    8.5843
    7.7360     1.1620    -0.761    0.279190    0.000000    0.003711   -0.673476   -0.076789     0.0000    0.0000    0.5294    3.9974
    7.9919     1.1094    -0.942    0.259676    0.000000    0.004271   -0.665434   -0.073387     0.0000    0.0000    0.5387    1.5797
    8.1986     1.0670    -1.199    0.231858    0.000000    0.004854   -0.623821   -0.067879     0.0000    0.0000    0.5513    0.4864
    8.3547     1.0349    -1.558    0.193809    0.000000    0.005271   -0.544915   -0.059838     0.0000    0.0000    0.5684    0.0975
    8.4594     1.0135    -2.044    0.144366    0.000000    0.005154   -0.448806   -0.051291     0.0000    0.0000    0.5932    0.0075
    8.5119     1.0027    -2.620    0.087357    0.000000    0.003998   -0.323230   -0.035303     0.0000    0.0000    0.5797    0.0000


Main Wing Cp Coefficients
 Panel     CtrlPt.x        CtrlPt.y        CtrlPt.z       Nx      Ny       Nz        Area       Cp
Main WingCp Coefficients
Strip 1
  20       3.461e+00      -8.492e+00       5.792e-01          -0.100          -0.076          -0.992       1.631e-04          0.1200
  21       3.449e+00      -8.492e+00       5.803e-01          -0.075          -0.074          -0.994       4.841e-04          0.1203
  22       3.424e+00      -8.492e+00       5.813e-01          -0.025          -0.070          -0.997       7.915e-04          0.1132
  23       3.389e+00      -8.492e+00       5.809e-01           0.038          -0.064          -0.997       1.081e-03          0.0844
  24       3.343e+00      -8.492e+00       5.783e-01           0.071          -0.060          -0.996       1.346e-03          0.0498
  25       3.287e+00      -8.493e+00       5.737e-01           0.093          -0.058          -0.994       1.579e-03          0.0246
  26       3.224e+00      -8.493e+00       5.674e-01           0.104          -0.056          -0.993       1.773e-03         -0.0019
  27       3.154e+00      -8.493e+00       5.601e-01           0.105          -0.056          -0.993       1.922e-03         -0.0318
  28       3.079e+00      -8.494e+00       5.527e-01           0.094          -0.058          -0.994       2.021e-03         -0.0645
  29       3.002e+00      -8.494e+00       5.462e-01           0.072          -0.062          -0.996       2.068e-03         -0.0959
  30       2.923e+00      -8.495e+00       5.420e-01           0.035          -0.069          -0.997       2.064e-03         -0.1153
  31       2.846e+00      -8.495e+00       5.406e-01           0.002          -0.075          -0.997       2.012e-03         -0.1170
  32       2.771e+00      -8.495e+00       5.413e-01          -0.022          -0.081          -0.997       1.912e-03         -0.1139
  33       2.701e+00      -8.495e+00       5.435e-01          -0.043          -0.086          -0.995       1.766e-03         -0.1135
  34       2.638e+00      -8.494e+00       5.469e-01          -0.066          -0.091          -0.994       1.577e-03         -0.1158
  35       2.582e+00      -8.494e+00       5.513e-01          -0.093          -0.098          -0.991       1.350e-03         -0.1223
  36       2.536e+00      -8.494e+00       5.563e-01          -0.129          -0.107          -0.986       1.091e-03         -0.1373
  37       2.501e+00      -8.493e+00       5.618e-01          -0.185          -0.122          -0.975       8.068e-04         -0.1858
  38       2.476e+00      -8.493e+00       5.679e-01          -0.333          -0.161          -0.929       5.148e-04         -0.2999
  39       2.464e+00      -8.492e+00       5.755e-01          -0.793          -0.267          -0.547       2.877e-04          0.3448
  40       2.464e+00      -8.492e+00       5.857e-01          -0.856          -0.216           0.469       3.579e-04          0.6178
  41       2.476e+00      -8.491e+00       5.967e-01          -0.491          -0.085           0.867       5.616e-04         -0.0780
  42       2.501e+00      -8.490e+00       6.077e-01          -0.357          -0.042           0.933       8.519e-04         -0.1508
  43       2.536e+00      -8.489e+00       6.193e-01          -0.272          -0.017           0.962       1.126e-03         -0.1977
  44       2.582e+00      -8.489e+00       6.306e-01          -0.210           0.001           0.978       1.375e-03         -0.2199
  45       2.638e+00      -8.488e+00       6.409e-01          -0.158           0.015           0.987       1.592e-03         -0.2321
  46       2.701e+00      -8.487e+00       6.495e-01          -0.113           0.026           0.993       1.773e-03         -0.2391
  47       2.771e+00      -8.487e+00       6.559e-01          -0.071           0.036           0.997       1.913e-03         -0.2459
  48       2.846e+00      -8.487e+00       6.595e-01          -0.027           0.046           0.999       2.008e-03         -0.2531
  49       2.923e+00      -8.487e+00       6.596e-01           0.025           0.056           0.998       2.058e-03         -0.2510
  50       3.002e+00      -8.487e+00       6.554e-01           0.080           0.066           0.995       2.065e-03         -0.2259
  51       3.079e+00      -8.487e+00       6.476e-01           0.123           0.073           0.990       2.023e-03         -0.1857
  52       3.154e+00      -8.488e+00       6.372e-01           0.154           0.078           0.985       1.931e-03         -0.1449
  53       3.224e+00      -8.489e+00       6.256e-01           0.175           0.081           0.981       1.789e-03         -0.1097
  54       3.287e+00      -8.490e+00       6.139e-01           0.189           0.082           0.979       1.600e-03         -0.0843
  55       3.343e+00      -8.491e+00       6.031e-01           0.196           0.083           0.977       1.369e-03         -0.0704
  56       3.389e+00      -8.491e+00       5.939e-01           0.196           0.083           0.977       1.102e-03         -0.0688
  57       3.424e+00      -8.492e+00       5.868e-01           0.195           0.083           0.977       8.067e-04         -0.0632
  58       3.449e+00      -8.492e+00       5.820e-01           0.194           0.083           0.977       4.921e-04         -0.0309
  59       3.461e+00      -8.492e+00       5.795e-01           0.194           0.083           0.977       1.654e-04         -0.0022
Strip 2
  60       3.456e+00      -8.440e+00       5.757e-01          -0.100          -0.076          -0.992       4.934e-04          0.1955
  61       3.444e+00      -8.440e+00       5.767e-01          -0.075          -0.074          -0.994       1.465e-03          0.2086
  62       3.419e+00      -8.440e+00       5.778e-01          -0.025          -0.070          -0.997       2.395e-03          0.2189
  63       3.383e+00      -8.440e+00       5.774e-01           0.038          -0.064          -0.997       3.271e-03          0.1937
  64       3.337e+00      -8.440e+00       5.747e-01           0.071          -0.060          -0.996       4.074e-03          0.1432
  65       3.281e+00      -8.440e+00       5.701e-01           0.093          -0.058          -0.994       4.779e-03          0.0940
  66       3.217e+00      -8.441e+00       5.637e-01           0.104          -0.056          -0.993       5.365e-03          0.0442
  67       3.146e+00      -8.441e+00       5.563e-01           0.105          -0.056          -0.993       5.815e-03         -0.0074
  68       3.071e+00      -8.442e+00       5.488e-01           0.094          -0.058          -0.994       6.115e-03         -0.0602
  69       2.992e+00      -8.442e+00       5.423e-01           0.072          -0.062          -0.996       6.258e-03         -0.1085
  70       2.913e+00      -8.442e+00       5.381e-01           0.035          -0.069          -0.997       6.246e-03         -0.1379
  71       2.835e+00      -8.442e+00       5.366e-01           0.002          -0.075          -0.997       6.089e-03         -0.1418
  72       2.759e+00      -8.442e+00       5.373e-01          -0.022          -0.081          -0.997       5.787e-03         -0.1378
  73       2.689e+00      -8.442e+00       5.395e-01          -0.043          -0.086          -0.995       5.345e-03         -0.1372
  74       2.625e+00      -8.442e+00       5.430e-01          -0.066          -0.091          -0.994       4.773e-03         -0.1402
  75       2.569e+00      -8.442e+00       5.474e-01          -0.093          -0.098          -0.991       4.086e-03         -0.1480
  76       2.522e+00      -8.441e+00       5.525e-01          -0.129          -0.107          -0.986       3.301e-03         -0.1624
  77       2.486e+00      -8.441e+00       5.581e-01          -0.185          -0.122          -0.975       2.441e-03         -0.2039
  78       2.461e+00      -8.441e+00       5.642e-01          -0.333          -0.161          -0.929       1.558e-03         -0.2958
  79       2.449e+00      -8.440e+00       5.719e-01          -0.793          -0.267          -0.547       8.706e-04          0.3509
  80       2.449e+00      -8.439e+00       5.822e-01          -0.856          -0.216           0.469       1.083e-03          0.6899
  81       2.461e+00      -8.439e+00       5.933e-01          -0.491          -0.085           0.867       1.699e-03         -0.0131
  82       2.486e+00      -8.438e+00       6.045e-01          -0.357          -0.042           0.933       2.577e-03         -0.1419
  83       2.522e+00      -8.437e+00       6.162e-01          -0.272          -0.017           0.962       3.407e-03         -0.2282
  84       2.569e+00      -8.436e+00       6.276e-01          -0.210           0.001           0.978       4.161e-03         -0.2694
  85       2.625e+00      -8.436e+00       6.380e-01          -0.158           0.015           0.987       4.818e-03         -0.2897
  86       2.689e+00      -8.435e+00       6.467e-01          -0.113           0.026           0.993       5.365e-03         -0.3006
  87       2.759e+00      -8.435e+00       6.532e-01          -0.071           0.036           0.997       5.788e-03         -0.3107
  88       2.835e+00      -8.434e+00       6.568e-01          -0.027           0.046           0.999       6.077e-03         -0.3218
  89       2.913e+00      -8.434e+00       6.569e-01           0.025           0.056           0.998       6.229e-03         -0.3207
  90       2.992e+00      -8.435e+00       6.527e-01           0.080           0.066           0.995       6.247e-03         -0.2891
  91       3.071e+00      -8.435e+00       6.447e-01           0.123           0.073           0.990       6.121e-03         -0.2363
  92       3.146e+00      -8.436e+00       6.343e-01           0.154           0.078           0.985       5.843e-03         -0.1821
  93       3.217e+00      -8.437e+00       6.225e-01           0.175           0.081           0.981       5.414e-03         -0.1335
  94       3.281e+00      -8.437e+00       6.107e-01           0.189           0.082           0.979       4.842e-03         -0.0924
  95       3.337e+00      -8.438e+00       5.998e-01           0.196           0.083           0.977       4.142e-03         -0.0561
  96       3.383e+00      -8.439e+00       5.905e-01           0.196           0.083           0.977       3.333e-03         -0.0267
  97       3.419e+00      -8.439e+00       5.833e-01           0.195           0.083           0.977       2.441e-03          0.0057
  98       3.444e+00      -8.440e+00       5.784e-01           0.194           0.083           0.977       1.489e-03          0.0597
  99       3.456e+00      -8.440e+00       5.760e-01           0.194           0.083           0.977       5.005e-04          0.0993
Strip 3
 100       3.448e+00      -8.335e+00       5.686e-01          -0.100          -0.076          -0.992       8.363e-04          0.2495
 101       3.435e+00      -8.335e+00       5.696e-01          -0.075          -0.074          -0.994       2.483e-03          0.2656
 102       3.410e+00      -8.335e+00       5.707e-01          -0.025          -0.070          -0.997       4.060e-03          0.2783
 103       3.373e+00      -8.335e+00       5.703e-01           0.038          -0.064          -0.997       5.545e-03          0.2506
 104       3.326e+00      -8.335e+00       5.676e-01           0.071          -0.060          -0.996       6.905e-03          0.1939
 105       3.268e+00      -8.336e+00       5.628e-01           0.093          -0.058          -0.994       8.100e-03          0.1348
 106       3.203e+00      -8.336e+00       5.564e-01           0.104          -0.056          -0.993       9.094e-03          0.0733
 107       3.131e+00      -8.337e+00       5.488e-01           0.105          -0.056          -0.993       9.857e-03          0.0092
 108       3.054e+00      -8.337e+00       5.411e-01           0.094          -0.058          -0.994       1.036e-02         -0.0566
 109       2.974e+00      -8.338e+00       5.345e-01           0.072          -0.062          -0.996       1.061e-02         -0.1167
 110       2.893e+00      -8.338e+00       5.302e-01           0.035          -0.069          -0.997       1.059e-02         -0.1541
 111       2.813e+00      -8.338e+00       5.286e-01           0.002          -0.075          -0.997       1.032e-02         -0.1609
 112       2.736e+00      -8.338e+00       5.293e-01          -0.022          -0.081          -0.997       9.809e-03         -0.1567
 113       2.664e+00      -8.338e+00       5.317e-01          -0.043          -0.086          -0.995       9.060e-03         -0.1539
 114       2.598e+00      -8.338e+00       5.352e-01          -0.066          -0.091          -0.994       8.091e-03         -0.1523
 115       2.541e+00      -8.337e+00       5.397e-01          -0.093          -0.098          -0.991       6.926e-03         -0.1511
 116       2.493e+00      -8.337e+00       5.449e-01          -0.129          -0.107          -0.986       5.596e-03         -0.1507
 117       2.457e+00      -8.337e+00       5.506e-01          -0.185          -0.122          -0.975       4.139e-03         -0.1733
 118       2.432e+00      -8.336e+00       5.569e-01          -0.333          -0.161          -0.929       2.641e-03         -0.2435
 119       2.419e+00      -8.336e+00       5.647e-01          -0.793          -0.267          -0.548       1.476e-03          0.3994
 120       2.419e+00      -8.335e+00       5.752e-01          -0.857          -0.216           0.468       1.835e-03          0.7372
 121       2.432e+00      -8.334e+00       5.866e-01          -0.491          -0.085           0.867       2.879e-03          0.0318
 122       2.457e+00      -8.333e+00       5.980e-01          -0.357          -0.042           0.933       4.368e-03         -0.1166
 123       2.493e+00      -8.333e+00       6.099e-01          -0.272          -0.017           0.962       5.773e-03         -0.2318
 124       2.541e+00      -8.332e+00       6.216e-01          -0.210           0.001           0.978       7.052e-03         -0.3011
 125       2.598e+00      -8.331e+00       6.322e-01          -0.158           0.015           0.987       8.167e-03         -0.3420
 126       2.664e+00      -8.331e+00       6.411e-01          -0.113           0.026           0.993       9.094e-03         -0.3656
 127       2.736e+00      -8.330e+00       6.477e-01          -0.071           0.036           0.997       9.811e-03         -0.3833
 128       2.813e+00      -8.330e+00       6.515e-01          -0.027           0.046           0.999       1.030e-02         -0.3985
 129       2.893e+00      -8.330e+00       6.515e-01           0.025           0.056           0.998       1.056e-02         -0.3969
 130       2.974e+00      -8.330e+00       6.472e-01           0.080           0.066           0.995       1.059e-02         -0.3576
 131       3.054e+00      -8.331e+00       6.391e-01           0.123           0.073           0.990       1.038e-02         -0.2905
 132       3.131e+00      -8.332e+00       6.284e-01           0.154           0.078           0.985       9.905e-03         -0.2177
 133       3.203e+00      -8.332e+00       6.164e-01           0.175           0.081           0.981       9.177e-03         -0.1476
 134       3.268e+00      -8.333e+00       6.044e-01           0.189           0.082           0.979       8.207e-03         -0.0829
 135       3.326e+00      -8.334e+00       5.932e-01           0.196           0.083           0.977       7.022e-03         -0.0234
 136       3.373e+00      -8.334e+00       5.837e-01           0.196           0.083           0.977       5.650e-03          0.0251
 137       3.410e+00      -8.335e+00       5.763e-01           0.195           0.083           0.977       4.138e-03          0.0711
 138       3.435e+00      -8.335e+00       5.714e-01           0.194           0.083           0.977       2.524e-03          0.1342
 139       3.448e+00      -8.335e+00       5.689e-01           0.194           0.083           0.977       8.484e-04          0.1781
Strip 4
 140       3.434e+00      -8.180e+00       5.580e-01          -0.100          -0.076          -0.992       1.200e-03          0.2653
 141       3.421e+00      -8.180e+00       5.590e-01          -0.075          -0.074          -0.994       3.562e-03          0.2829
 142       3.395e+00      -8.179e+00       5.602e-01          -0.025          -0.070          -0.997       5.823e-03          0.2976
 143       3.358e+00      -8.179e+00       5.597e-01           0.038          -0.064          -0.997       7.954e-03          0.2711
 144       3.309e+00      -8.180e+00       5.570e-01           0.071          -0.060          -0.996       9.905e-03          0.2145
 145       3.250e+00      -8.180e+00       5.521e-01           0.093          -0.058          -0.994       1.162e-02          0.1537
 146       3.182e+00      -8.180e+00       5.454e-01           0.104          -0.056          -0.993       1.304e-02          0.0883
 147       3.108e+00      -8.181e+00       5.376e-01           0.105          -0.056          -0.993       1.414e-02          0.0186
 148       3.028e+00      -8.181e+00       5.297e-01           0.094          -0.058          -0.994       1.487e-02         -0.0535
 149       2.946e+00      -8.182e+00       5.228e-01           0.072          -0.062          -0.996       1.521e-02         -0.1194
 150       2.862e+00      -8.182e+00       5.183e-01           0.035          -0.069          -0.997       1.519e-02         -0.1607
 151       2.780e+00      -8.182e+00       5.168e-01           0.002          -0.075          -0.997       1.481e-02         -0.1688
 152       2.701e+00      -8.182e+00       5.175e-01          -0.022          -0.081          -0.997       1.407e-02         -0.1633
 153       2.626e+00      -8.182e+00       5.199e-01          -0.043          -0.086          -0.995       1.300e-02         -0.1571
 154       2.559e+00      -8.182e+00       5.235e-01          -0.066          -0.091          -0.994       1.161e-02         -0.1498
 155       2.500e+00      -8.181e+00       5.282e-01          -0.093          -0.098          -0.991       9.935e-03         -0.1417
 156       2.451e+00      -8.181e+00       5.336e-01          -0.129          -0.107          -0.986       8.028e-03         -0.1346
 157       2.413e+00      -8.181e+00       5.394e-01          -0.185          -0.122          -0.975       5.938e-03         -0.1492
 158       2.387e+00      -8.180e+00       5.459e-01          -0.333          -0.161          -0.929       3.790e-03         -0.2055
 159       2.374e+00      -8.180e+00       5.540e-01          -0.793          -0.267          -0.548       2.118e-03          0.4337
 160       2.374e+00      -8.179e+00       5.648e-01          -0.857          -0.217           0.468       2.632e-03          0.7382
 161       2.387e+00      -8.178e+00       5.766e-01          -0.492          -0.085           0.867       4.129e-03          0.0264
 162       2.413e+00      -8.178e+00       5.883e-01          -0.357          -0.042           0.933       6.264e-03         -0.1216
 163       2.451e+00      -8.177e+00       6.006e-01          -0.272          -0.017           0.962       8.280e-03         -0.2428
 164       2.500e+00      -8.176e+00       6.127e-01          -0.210           0.001           0.978       1.011e-02         -0.3218
 165       2.559e+00      -8.176e+00       6.236e-01          -0.158           0.015           0.987       1.171e-02         -0.3747
 166       2.626e+00      -8.175e+00       6.328e-01          -0.113           0.026           0.993       1.304e-02         -0.4094
 167       2.701e+00      -8.175e+00       6.396e-01          -0.071           0.036           0.997       1.407e-02         -0.4357
 168       2.780e+00      -8.174e+00       6.434e-01          -0.027           0.046           0.999       1.477e-02         -0.4562
 169       2.862e+00      -8.174e+00       6.435e-01           0.025           0.056           0.998       1.515e-02         -0.4558
 170       2.946e+00      -8.175e+00       6.391e-01           0.080           0.066           0.995       1.519e-02         -0.4125
 171       3.028e+00      -8.175e+00       6.307e-01           0.123           0.073           0.990       1.488e-02         -0.3371
 172       3.108e+00      -8.176e+00       6.197e-01           0.154           0.078           0.985       1.421e-02         -0.2534
 173       3.182e+00      -8.177e+00       6.073e-01           0.175           0.081           0.981       1.316e-02         -0.1713
 174       3.250e+00      -8.177e+00       5.949e-01           0.189           0.082           0.979       1.177e-02         -0.0950
 175       3.309e+00      -8.178e+00       5.833e-01           0.196           0.083           0.977       1.007e-02         -0.0252
 176       3.358e+00      -8.179e+00       5.735e-01           0.196           0.083           0.977       8.105e-03          0.0314
 177       3.395e+00      -8.179e+00       5.660e-01           0.195           0.083           0.977       5.936e-03          0.0834
 178       3.421e+00      -8.179e+00       5.609e-01           0.194           0.083           0.977       3.621e-03          0.1514
 179       3.434e+00      -8.180e+00       5.583e-01           0.194           0.083           0.977       1.217e-03          0.1978
Strip 5
 180       3.417e+00      -7.973e+00       5.439e-01          -0.100          -0.076          -0.992       1.591e-03          0.2703
 181       3.403e+00      -7.973e+00       5.450e-01          -0.075          -0.074          -0.994       4.722e-03          0.2887
 182       3.376e+00      -7.973e+00       5.462e-01          -0.025          -0.070          -0.997       7.721e-03          0.3045
 183       3.337e+00      -7.973e+00       5.458e-01           0.038          -0.064          -0.997       1.055e-02          0.2787
 184       3.286e+00      -7.973e+00       5.429e-01           0.071          -0.060          -0.996       1.313e-02          0.2225
 185       3.225e+00      -7.974e+00       5.378e-01           0.093          -0.058          -0.994       1.540e-02          0.1615
 186       3.154e+00      -7.974e+00       5.308e-01           0.104          -0.056          -0.993       1.729e-02          0.0952
 187       3.077e+00      -7.975e+00       5.227e-01           0.105          -0.056          -0.993       1.874e-02          0.0239
 188       2.995e+00      -7.975e+00       5.145e-01           0.094          -0.058          -0.994       1.971e-02         -0.0501
 189       2.909e+00      -7.975e+00       5.074e-01           0.072          -0.062          -0.996       2.017e-02         -0.1178
 190       2.822e+00      -7.976e+00       5.027e-01           0.035          -0.069          -0.997       2.013e-02         -0.1602
 191       2.736e+00      -7.976e+00       5.011e-01           0.002          -0.075          -0.997       1.963e-02         -0.1681
 192       2.654e+00      -7.976e+00       5.019e-01          -0.022          -0.081          -0.997       1.866e-02         -0.1612
 193       2.577e+00      -7.976e+00       5.043e-01          -0.043          -0.086          -0.995       1.723e-02         -0.1526
 194       2.506e+00      -7.975e+00       5.081e-01          -0.066          -0.091          -0.994       1.539e-02         -0.1426
 195       2.445e+00      -7.975e+00       5.130e-01          -0.093          -0.098          -0.991       1.317e-02         -0.1315
 196       2.394e+00      -7.975e+00       5.186e-01          -0.129          -0.107          -0.986       1.065e-02         -0.1210
 197       2.355e+00      -7.974e+00       5.246e-01          -0.185          -0.122          -0.975       7.874e-03         -0.1301
 198       2.328e+00      -7.974e+00       5.314e-01          -0.333          -0.161          -0.929       5.026e-03         -0.1738
 199       2.314e+00      -7.974e+00       5.398e-01          -0.792          -0.267          -0.549       2.810e-03          0.4633
 200       2.314e+00      -7.973e+00       5.510e-01          -0.857          -0.217           0.467       3.487e-03          0.7277
 201       2.328e+00      -7.972e+00       5.633e-01          -0.492          -0.085           0.867       5.471e-03          0.0070
 202       2.355e+00      -7.972e+00       5.755e-01          -0.357          -0.043           0.933       8.302e-03         -0.1363
 203       2.394e+00      -7.971e+00       5.883e-01          -0.272          -0.017           0.962       1.097e-02         -0.2580
 204       2.445e+00      -7.970e+00       6.008e-01          -0.210           0.000           0.978       1.341e-02         -0.3395
 205       2.506e+00      -7.969e+00       6.122e-01          -0.158           0.015           0.987       1.553e-02         -0.3966
 206       2.577e+00      -7.969e+00       6.217e-01          -0.113           0.026           0.993       1.729e-02         -0.4365
 207       2.654e+00      -7.969e+00       6.288e-01          -0.071           0.036           0.997       1.866e-02         -0.4678
 208       2.736e+00      -7.968e+00       6.328e-01          -0.027           0.046           0.999       1.959e-02         -0.4923
 209       2.822e+00      -7.968e+00       6.329e-01           0.025           0.056           0.998       2.008e-02         -0.4937
 210       2.909e+00      -7.969e+00       6.283e-01           0.080           0.066           0.995       2.014e-02         -0.4490
 211       2.995e+00      -7.969e+00       6.196e-01           0.123           0.073           0.990       1.974e-02         -0.3694
 212       3.077e+00      -7.970e+00       6.081e-01           0.154           0.078           0.985       1.884e-02         -0.2799
 213       3.154e+00      -7.970e+00       5.952e-01           0.175           0.081           0.981       1.746e-02         -0.1914
 214       3.225e+00      -7.971e+00       5.823e-01           0.189           0.082           0.979       1.561e-02         -0.1086
 215       3.286e+00      -7.972e+00       5.703e-01           0.196           0.083           0.977       1.336e-02         -0.0330
 216       3.337e+00      -7.972e+00       5.601e-01           0.196           0.083           0.977       1.075e-02          0.0283
 217       3.376e+00      -7.973e+00       5.523e-01           0.195           0.083           0.977       7.871e-03          0.0839
 218       3.403e+00      -7.973e+00       5.469e-01           0.194           0.083           0.977       4.801e-03          0.1549
 219       3.417e+00      -7.973e+00       5.442e-01           0.194           0.083           0.977       1.614e-03          0.2030
Strip 6
 220       3.395e+00      -7.718e+00       5.265e-01          -0.100          -0.076          -0.992       2.015e-03          0.2714
 221       3.381e+00      -7.718e+00       5.277e-01          -0.075          -0.074          -0.994       5.983e-03          0.2904
 222       3.353e+00      -7.718e+00       5.289e-01          -0.025          -0.070          -0.997       9.781e-03          0.3068
 223       3.312e+00      -7.718e+00       5.285e-01           0.038          -0.064          -0.997       1.336e-02          0.2815
 224       3.258e+00      -7.718e+00       5.254e-01           0.071          -0.060          -0.996       1.664e-02          0.2257
 225       3.194e+00      -7.718e+00       5.201e-01           0.093          -0.058          -0.994       1.951e-02          0.1650
 226       3.120e+00      -7.719e+00       5.128e-01           0.104          -0.056          -0.993       2.191e-02          0.0988
 227       3.039e+00      -7.719e+00       5.043e-01           0.105          -0.056          -0.993       2.374e-02          0.0274
 228       2.953e+00      -7.720e+00       4.957e-01           0.094          -0.058          -0.994       2.497e-02         -0.0467
 229       2.863e+00      -7.720e+00       4.882e-01           0.072          -0.062          -0.996       2.555e-02         -0.1146
 230       2.772e+00      -7.720e+00       4.834e-01           0.035          -0.069          -0.997       2.551e-02         -0.1567
 231       2.683e+00      -7.720e+00       4.816e-01           0.002          -0.075          -0.997       2.487e-02         -0.1642
 232       2.596e+00      -7.720e+00       4.825e-01          -0.022          -0.081          -0.997       2.364e-02         -0.1564
 233       2.515e+00      -7.720e+00       4.850e-01          -0.043          -0.086          -0.995       2.183e-02         -0.1467
 234       2.442e+00      -7.720e+00       4.890e-01          -0.066          -0.091          -0.994       1.950e-02         -0.1353
 235       2.377e+00      -7.720e+00       4.941e-01          -0.093          -0.098          -0.991       1.669e-02         -0.1228
 236       2.324e+00      -7.719e+00       5.000e-01          -0.129          -0.107          -0.986       1.349e-02         -0.1101
 237       2.283e+00      -7.719e+00       5.063e-01          -0.185          -0.122          -0.975       9.977e-03         -0.1149
 238       2.255e+00      -7.719e+00       5.134e-01          -0.333          -0.161          -0.929       6.370e-03         -0.1480
 239       2.240e+00      -7.718e+00       5.222e-01          -0.792          -0.267          -0.549       3.562e-03          0.4872
 240       2.240e+00      -7.718e+00       5.340e-01          -0.858          -0.217           0.466       4.416e-03          0.7153
 241       2.255e+00      -7.717e+00       5.468e-01          -0.492          -0.085           0.866       6.928e-03         -0.0133
 242       2.283e+00      -7.716e+00       5.596e-01          -0.357          -0.043           0.933       1.051e-02         -0.1514
 243       2.324e+00      -7.716e+00       5.730e-01          -0.273          -0.017           0.962       1.390e-02         -0.2721
 244       2.377e+00      -7.715e+00       5.861e-01          -0.210           0.000           0.978       1.698e-02         -0.3539
 245       2.442e+00      -7.714e+00       5.981e-01          -0.158           0.015           0.987       1.967e-02         -0.4122
 246       2.515e+00      -7.714e+00       6.080e-01          -0.113           0.026           0.993       2.190e-02         -0.4539
 247       2.596e+00      -7.713e+00       6.155e-01          -0.071           0.036           0.997       2.363e-02         -0.4873
 248       2.683e+00      -7.713e+00       6.197e-01          -0.027           0.046           0.999       2.481e-02         -0.5138
 249       2.772e+00      -7.713e+00       6.197e-01           0.025           0.056           0.998       2.544e-02         -0.5161
 250       2.863e+00      -7.713e+00       6.149e-01           0.080           0.066           0.995       2.552e-02         -0.4708
 251       2.953e+00      -7.714e+00       6.058e-01           0.123           0.073           0.990       2.501e-02         -0.3892
 252       3.039e+00      -7.714e+00       5.938e-01           0.154           0.078           0.985       2.387e-02         -0.2968
 253       3.120e+00      -7.715e+00       5.803e-01           0.175           0.081           0.981       2.212e-02         -0.2048
 254       3.194e+00      -7.716e+00       5.667e-01           0.189           0.082           0.979       1.978e-02         -0.1186
 255       3.258e+00      -7.717e+00       5.542e-01           0.196           0.083           0.977       1.692e-02         -0.0400
 256       3.312e+00      -7.717e+00       5.435e-01           0.196           0.083           0.977       1.362e-02          0.0239
 257       3.353e+00      -7.718e+00       5.353e-01           0.195           0.083           0.977       9.972e-03          0.0817
 258       3.381e+00      -7.718e+00       5.297e-01           0.194           0.083           0.977       6.083e-03          0.1544
 259       3.395e+00      -7.718e+00       5.269e-01           0.194           0.083           0.977       2.044e-03          0.2035
Strip 7
 260       3.370e+00      -7.415e+00       5.059e-01          -0.100          -0.076          -0.992       2.478e-03          0.2715
 261       3.355e+00      -7.415e+00       5.071e-01          -0.075          -0.074          -0.994       7.357e-03          0.2908
 262       3.325e+00      -7.415e+00       5.084e-01          -0.025          -0.070          -0.997       1.203e-02          0.3077
 263       3.282e+00      -7.415e+00       5.079e-01           0.038          -0.064          -0.997       1.643e-02          0.2826
 264       3.225e+00      -7.415e+00       5.047e-01           0.071          -0.060          -0.996       2.046e-02          0.2272
 265       3.158e+00      -7.415e+00       4.991e-01           0.093          -0.058          -0.994       2.400e-02          0.1669
 266       3.080e+00      -7.416e+00       4.914e-01           0.104          -0.056          -0.993       2.694e-02          0.1010
 267       2.995e+00      -7.416e+00       4.825e-01           0.105          -0.056          -0.993       2.920e-02          0.0299
 268       2.904e+00      -7.417e+00       4.734e-01           0.094          -0.058          -0.994       3.070e-02         -0.0439
 269       2.809e+00      -7.417e+00       4.655e-01           0.072          -0.062          -0.996       3.142e-02         -0.1114
 270       2.713e+00      -7.417e+00       4.604e-01           0.035          -0.069          -0.997       3.137e-02         -0.1531
 271       2.619e+00      -7.417e+00       4.586e-01           0.002          -0.075          -0.997       3.058e-02         -0.1601
 272       2.528e+00      -7.417e+00       4.594e-01          -0.022          -0.081          -0.997       2.907e-02         -0.1519
 273       2.442e+00      -7.417e+00       4.622e-01          -0.043          -0.086          -0.995       2.685e-02         -0.1416
 274       2.365e+00      -7.417e+00       4.664e-01          -0.066          -0.091          -0.994       2.398e-02         -0.1295
 275       2.297e+00      -7.417e+00       4.717e-01          -0.093          -0.098          -0.991       2.053e-02         -0.1160
 276       2.241e+00      -7.416e+00       4.779e-01          -0.129          -0.107          -0.986       1.659e-02         -0.1019
 277       2.197e+00      -7.416e+00       4.846e-01          -0.185          -0.122          -0.975       1.227e-02         -0.1036
 278       2.168e+00      -7.416e+00       4.920e-01          -0.332          -0.161          -0.929       7.836e-03         -0.1290
 279       2.153e+00      -7.415e+00       5.013e-01          -0.791          -0.267          -0.550       4.383e-03          0.5043
 280       2.153e+00      -7.415e+00       5.137e-01          -0.858          -0.217           0.465       5.428e-03          0.7049
 281       2.168e+00      -7.414e+00       5.273e-01          -0.492          -0.085           0.866       8.514e-03         -0.0298
 282       2.197e+00      -7.413e+00       5.407e-01          -0.357          -0.043           0.933       1.292e-02         -0.1634
 283       2.241e+00      -7.413e+00       5.549e-01          -0.273          -0.017           0.962       1.709e-02         -0.2829
 284       2.297e+00      -7.412e+00       5.687e-01          -0.210           0.000           0.978       2.087e-02         -0.3644
 285       2.365e+00      -7.411e+00       5.813e-01          -0.158           0.015           0.987       2.418e-02         -0.4229
 286       2.442e+00      -7.411e+00       5.918e-01          -0.113           0.026           0.993       2.693e-02         -0.4651
 287       2.528e+00      -7.411e+00       5.996e-01          -0.071           0.036           0.997       2.906e-02         -0.4993
 288       2.619e+00      -7.410e+00       6.041e-01          -0.027           0.046           0.999       3.051e-02         -0.5265
 289       2.713e+00      -7.410e+00       6.041e-01           0.025           0.056           0.998       3.128e-02         -0.5292
 290       2.809e+00      -7.411e+00       5.990e-01           0.080           0.066           0.995       3.138e-02         -0.4834
 291       2.904e+00      -7.411e+00       5.894e-01           0.123           0.073           0.990       3.075e-02         -0.4007
 292       2.995e+00      -7.412e+00       5.768e-01           0.154           0.078           0.985       2.936e-02         -0.3067
 293       3.080e+00      -7.412e+00       5.626e-01           0.175           0.081           0.981       2.720e-02         -0.2131
 294       3.158e+00      -7.413e+00       5.483e-01           0.189           0.082           0.979       2.433e-02         -0.1251
 295       3.225e+00      -7.414e+00       5.350e-01           0.196           0.083           0.977       2.081e-02         -0.0447
 296       3.282e+00      -7.414e+00       5.238e-01           0.196           0.083           0.977       1.675e-02          0.0206
 297       3.325e+00      -7.415e+00       5.151e-01           0.195           0.083           0.977       1.226e-02          0.0795
 298       3.355e+00      -7.415e+00       5.092e-01           0.194           0.083           0.977       7.481e-03          0.1533
 299       3.370e+00      -7.415e+00       5.063e-01           0.194           0.083           0.977       2.514e-03          0.2030
Strip 8
 300       3.340e+00      -7.066e+00       4.821e-01          -0.100          -0.076          -0.992       2.983e-03          0.2714
 301       3.324e+00      -7.066e+00       4.834e-01          -0.075          -0.074          -0.994       8.856e-03          0.2909
 302       3.293e+00      -7.066e+00       4.848e-01          -0.025          -0.070          -0.997       1.448e-02          0.3081
 303       3.247e+00      -7.066e+00       4.843e-01           0.038          -0.064          -0.997       1.977e-02          0.2833
 304       3.187e+00      -7.066e+00       4.809e-01           0.071          -0.060          -0.996       2.462e-02          0.2281
 305       3.116e+00      -7.067e+00       4.750e-01           0.093          -0.058          -0.994       2.888e-02          0.1680
 306       3.034e+00      -7.067e+00       4.668e-01           0.104          -0.056          -0.993       3.242e-02          0.1024
 307       2.943e+00      -7.067e+00       4.574e-01           0.105          -0.056          -0.993       3.514e-02          0.0317
 308       2.847e+00      -7.068e+00       4.477e-01           0.094          -0.058          -0.994       3.695e-02         -0.0418
 309       2.747e+00      -7.068e+00       4.394e-01           0.072          -0.062          -0.996       3.782e-02         -0.1089
 310       2.645e+00      -7.068e+00       4.340e-01           0.035          -0.069          -0.997       3.775e-02         -0.1504
 311       2.545e+00      -7.069e+00       4.321e-01           0.002          -0.075          -0.997       3.681e-02         -0.1571
 312       2.449e+00      -7.069e+00       4.330e-01          -0.022          -0.081          -0.997       3.499e-02         -0.1485
 313       2.358e+00      -7.068e+00       4.358e-01          -0.043          -0.086          -0.995       3.232e-02         -0.1380
 314       2.276e+00      -7.068e+00       4.403e-01          -0.066          -0.091          -0.994       2.886e-02         -0.1255
 315       2.205e+00      -7.068e+00       4.459e-01          -0.093          -0.098          -0.991       2.471e-02         -0.1115
 316       2.145e+00      -7.068e+00       4.525e-01          -0.129          -0.107          -0.986       1.997e-02         -0.0965
 317       2.099e+00      -7.067e+00       4.596e-01          -0.185          -0.122          -0.975       1.477e-02         -0.0963
 318       2.068e+00      -7.067e+00       4.675e-01          -0.332          -0.161          -0.929       9.436e-03         -0.1166
 319       2.052e+00      -7.067e+00       4.773e-01          -0.791          -0.267          -0.551       5.278e-03          0.5151
 320       2.052e+00      -7.066e+00       4.904e-01          -0.859          -0.217           0.464       6.530e-03          0.6980
 321       2.068e+00      -7.065e+00       5.048e-01          -0.493          -0.085           0.866       1.024e-02         -0.0409
 322       2.099e+00      -7.065e+00       5.190e-01          -0.357          -0.043           0.933       1.555e-02         -0.1714
 323       2.145e+00      -7.064e+00       5.340e-01          -0.273          -0.017           0.962       2.056e-02         -0.2901
 324       2.205e+00      -7.063e+00       5.487e-01          -0.210           0.000           0.978       2.512e-02         -0.3712
 325       2.276e+00      -7.063e+00       5.620e-01          -0.158           0.014           0.987       2.910e-02         -0.4297
 326       2.358e+00      -7.062e+00       5.731e-01          -0.113           0.026           0.993       3.241e-02         -0.4721
 327       2.449e+00      -7.062e+00       5.814e-01          -0.071           0.036           0.997       3.498e-02         -0.5066
 328       2.545e+00      -7.062e+00       5.861e-01          -0.027           0.046           0.999       3.673e-02         -0.5339
 329       2.645e+00      -7.062e+00       5.861e-01           0.025           0.056           0.998       3.766e-02         -0.5366
 330       2.747e+00      -7.062e+00       5.808e-01           0.080           0.066           0.995       3.778e-02         -0.4906
 331       2.847e+00      -7.063e+00       5.706e-01           0.123           0.073           0.990       3.702e-02         -0.4072
 332       2.943e+00      -7.063e+00       5.572e-01           0.154           0.078           0.985       3.534e-02         -0.3124
 333       3.034e+00      -7.064e+00       5.422e-01           0.175           0.081           0.981       3.274e-02         -0.2178
 334       3.116e+00      -7.064e+00       5.270e-01           0.189           0.082           0.979       2.928e-02         -0.1289
 335       3.187e+00      -7.065e+00       5.130e-01           0.196           0.083           0.977       2.505e-02         -0.0477
 336       3.247e+00      -7.066e+00       5.011e-01           0.196           0.083           0.977       2.016e-02          0.0184
 337       3.293e+00      -7.066e+00       4.919e-01           0.195           0.083           0.977       1.476e-02          0.0780
 338       3.324e+00      -7.066e+00       4.857e-01           0.194           0.083           0.977       9.005e-03          0.1524
 339       3.340e+00      -7.066e+00       4.825e-01           0.194           0.083           0.977       3.027e-03          0.2025
Strip 9
 340       3.307e+00      -6.674e+00       4.554e-01          -0.100          -0.076          -0.992       3.531e-03          0.2713
 341       3.290e+00      -6.674e+00       4.568e-01          -0.075          -0.074          -0.994       1.048e-02          0.2910
 342       3.257e+00      -6.674e+00       4.583e-01          -0.025          -0.070          -0.997       1.714e-02          0.3083
 343       3.208e+00      -6.674e+00       4.577e-01           0.038          -0.064          -0.997       2.341e-02          0.2837
 344       3.145e+00      -6.674e+00       4.541e-01           0.071          -0.060          -0.996       2.914e-02          0.2287
 345       3.068e+00      -6.674e+00       4.478e-01           0.093          -0.058          -0.994       3.419e-02          0.1688
 346       2.981e+00      -6.675e+00       4.392e-01           0.104          -0.056          -0.993       3.838e-02          0.1034
 347       2.885e+00      -6.675e+00       4.291e-01           0.105          -0.056          -0.993       4.159e-02          0.0328
 348       2.783e+00      -6.676e+00       4.188e-01           0.094          -0.058          -0.994       4.374e-02         -0.0405
 349       2.676e+00      -6.676e+00       4.100e-01           0.072          -0.062          -0.996       4.476e-02         -0.1073
 350       2.569e+00      -6.676e+00       4.042e-01           0.035          -0.069          -0.997       4.469e-02         -0.1486
 351       2.462e+00      -6.676e+00       4.022e-01           0.002          -0.075          -0.997       4.357e-02         -0.1551
 352       2.360e+00      -6.676e+00       4.032e-01          -0.022          -0.081          -0.997       4.141e-02         -0.1465
 353       2.264e+00      -6.676e+00       4.062e-01          -0.043          -0.086          -0.995       3.826e-02         -0.1358
 354       2.177e+00      -6.676e+00       4.110e-01          -0.066          -0.091          -0.994       3.417e-02         -0.1232
 355       2.101e+00      -6.676e+00       4.170e-01          -0.093          -0.098          -0.991       2.925e-02         -0.1090
 356       2.037e+00      -6.675e+00       4.239e-01          -0.129          -0.107          -0.986       2.364e-02         -0.0936
 357       1.989e+00      -6.675e+00       4.315e-01          -0.185          -0.122          -0.975       1.749e-02         -0.0924
 358       1.955e+00      -6.675e+00       4.399e-01          -0.332          -0.161          -0.929       1.117e-02         -0.1100
 359       1.938e+00      -6.674e+00       4.503e-01          -0.790          -0.267          -0.552       6.252e-03          0.5203
 360       1.938e+00      -6.674e+00       4.643e-01          -0.859          -0.218           0.463       7.725e-03          0.6947
 361       1.955e+00      -6.673e+00       4.795e-01          -0.493          -0.085           0.866       1.212e-02         -0.0468
 362       1.989e+00      -6.673e+00       4.946e-01          -0.358          -0.043           0.933       1.840e-02         -0.1758
 363       2.037e+00      -6.672e+00       5.106e-01          -0.273          -0.017           0.962       2.433e-02         -0.2940
 364       2.101e+00      -6.671e+00       5.261e-01          -0.211           0.000           0.978       2.973e-02         -0.3750
 365       2.177e+00      -6.671e+00       5.403e-01          -0.158           0.014           0.987       3.444e-02         -0.4335
 366       2.264e+00      -6.670e+00       5.521e-01          -0.113           0.026           0.993       3.836e-02         -0.4760
 367       2.360e+00      -6.670e+00       5.609e-01          -0.071           0.036           0.997       4.140e-02         -0.5106
 368       2.462e+00      -6.670e+00       5.659e-01          -0.027           0.046           0.999       4.347e-02         -0.5380
 369       2.569e+00      -6.670e+00       5.659e-01           0.025           0.056           0.998       4.458e-02         -0.5408
 370       2.676e+00      -6.670e+00       5.602e-01           0.080           0.066           0.995       4.472e-02         -0.4945
 371       2.783e+00      -6.671e+00       5.494e-01           0.123           0.073           0.990       4.382e-02         -0.4107
 372       2.885e+00      -6.671e+00       5.352e-01           0.154           0.078           0.985       4.184e-02         -0.3155
 373       2.981e+00      -6.672e+00       5.192e-01           0.175           0.081           0.981       3.876e-02         -0.2204
 374       3.068e+00      -6.672e+00       5.031e-01           0.189           0.082           0.979       3.467e-02         -0.1310
 375       3.145e+00      -6.673e+00       4.882e-01           0.196           0.083           0.977       2.966e-02         -0.0494
 376       3.208e+00      -6.673e+00       4.755e-01           0.196           0.083           0.977       2.386e-02          0.0171
 377       3.257e+00      -6.674e+00       4.658e-01           0.195           0.083           0.977       1.748e-02          0.0771
 378       3.290e+00      -6.674e+00       4.592e-01           0.194           0.083           0.977       1.066e-02          0.1518
 379       3.307e+00      -6.674e+00       4.558e-01           0.194           0.083           0.977       3.583e-03          0.2021
Strip 10
 380       3.270e+00      -6.241e+00       4.259e-01          -0.100          -0.076          -0.992       4.123e-03          0.2713
 381       3.252e+00      -6.241e+00       4.274e-01          -0.075          -0.074          -0.994       1.224e-02          0.2910
 382       3.217e+00      -6.241e+00       4.289e-01          -0.025          -0.070          -0.997       2.001e-02          0.3085
 383       3.165e+00      -6.241e+00       4.284e-01           0.038          -0.064          -0.997       2.732e-02          0.2840
 384       3.097e+00      -6.241e+00       4.245e-01           0.071          -0.060          -0.996       3.402e-02          0.2290
 385       3.016e+00      -6.241e+00       4.178e-01           0.093          -0.058          -0.994       3.991e-02          0.1692
 386       2.923e+00      -6.241e+00       4.086e-01           0.104          -0.056          -0.993       4.480e-02          0.1039
 387       2.821e+00      -6.242e+00       3.979e-01           0.105          -0.056          -0.993       4.855e-02          0.0335
 388       2.712e+00      -6.242e+00       3.869e-01           0.094          -0.058          -0.994       5.106e-02         -0.0398
 389       2.599e+00      -6.242e+00       3.775e-01           0.072          -0.062          -0.996       5.225e-02         -0.1065
 390       2.484e+00      -6.243e+00       3.714e-01           0.035          -0.069          -0.997       5.217e-02         -0.1477
 391       2.371e+00      -6.243e+00       3.692e-01           0.002          -0.075          -0.997       5.087e-02         -0.1542
 392       2.262e+00      -6.243e+00       3.702e-01          -0.022          -0.081          -0.997       4.835e-02         -0.1456
 393       2.160e+00      -6.243e+00       3.735e-01          -0.043          -0.086          -0.995       4.466e-02         -0.1348
 394       2.067e+00      -6.242e+00       3.785e-01          -0.066          -0.091          -0.994       3.989e-02         -0.1223
 395       1.986e+00      -6.242e+00       3.849e-01          -0.093          -0.098          -0.991       3.416e-02         -0.1081
 396       1.918e+00      -6.242e+00       3.923e-01          -0.129          -0.107          -0.986       2.761e-02         -0.0926
 397       1.866e+00      -6.242e+00       4.004e-01          -0.185          -0.122          -0.975       2.043e-02         -0.0912
 398       1.831e+00      -6.241e+00       4.093e-01          -0.332          -0.161          -0.930       1.305e-02         -0.1085
 399       1.813e+00      -6.241e+00       4.204e-01          -0.790          -0.266          -0.552       7.303e-03          0.5208
 400       1.813e+00      -6.240e+00       4.353e-01          -0.860          -0.218           0.462       9.014e-03          0.6947
 401       1.831e+00      -6.240e+00       4.515e-01          -0.493          -0.086           0.866       1.414e-02         -0.0480
 402       1.866e+00      -6.239e+00       4.676e-01          -0.358          -0.043           0.933       2.147e-02         -0.1767
 403       1.918e+00      -6.239e+00       4.846e-01          -0.273          -0.017           0.962       2.839e-02         -0.2951
 404       1.986e+00      -6.238e+00       5.012e-01          -0.211           0.000           0.978       3.470e-02         -0.3763
 405       2.067e+00      -6.238e+00       5.163e-01          -0.158           0.014           0.987       4.020e-02         -0.4350
 406       2.160e+00      -6.237e+00       5.289e-01          -0.113           0.026           0.993       4.478e-02         -0.4776
 407       2.262e+00      -6.237e+00       5.383e-01          -0.071           0.036           0.997       4.833e-02         -0.5124
 408       2.371e+00      -6.237e+00       5.436e-01          -0.027           0.046           0.999       5.075e-02         -0.5399
 409       2.484e+00      -6.237e+00       5.436e-01           0.025           0.056           0.998       5.204e-02         -0.5426
 410       2.599e+00      -6.237e+00       5.376e-01           0.080           0.066           0.995       5.221e-02         -0.4964
 411       2.712e+00      -6.237e+00       5.260e-01           0.123           0.073           0.990       5.117e-02         -0.4124
 412       2.821e+00      -6.238e+00       5.108e-01           0.154           0.078           0.985       4.885e-02         -0.3170
 413       2.923e+00      -6.238e+00       4.938e-01           0.175           0.081           0.981       4.526e-02         -0.2217
 414       3.016e+00      -6.239e+00       4.767e-01           0.189           0.082           0.979       4.048e-02         -0.1321
 415       3.097e+00      -6.240e+00       4.608e-01           0.196           0.083           0.977       3.463e-02         -0.0502
 416       3.165e+00      -6.240e+00       4.473e-01           0.196           0.083           0.977       2.786e-02          0.0165
 417       3.217e+00      -6.240e+00       4.369e-01           0.195           0.083           0.977       2.040e-02          0.0766
 418       3.252e+00      -6.241e+00       4.299e-01           0.194           0.083           0.977       1.245e-02          0.1515
 419       3.270e+00      -6.241e+00       4.263e-01           0.194           0.083           0.977       4.183e-03          0.2018
Strip 11
 420       3.230e+00      -5.769e+00       3.938e-01          -0.100          -0.076          -0.992       4.756e-03          0.2713
 421       3.211e+00      -5.769e+00       3.953e-01          -0.075          -0.074          -0.994       1.412e-02          0.2911
 422       3.173e+00      -5.769e+00       3.970e-01          -0.025          -0.070          -0.997       2.308e-02          0.3086
 423       3.118e+00      -5.769e+00       3.964e-01           0.038          -0.064          -0.997       3.152e-02          0.2841
 424       3.046e+00      -5.769e+00       3.923e-01           0.071          -0.060          -0.996       3.924e-02          0.2292
 425       2.959e+00      -5.769e+00       3.851e-01           0.093          -0.058          -0.994       4.603e-02          0.1694
 426       2.860e+00      -5.769e+00       3.753e-01           0.104          -0.056          -0.993       5.167e-02          0.1041
 427       2.752e+00      -5.770e+00       3.639e-01           0.105          -0.056          -0.993       5.600e-02          0.0337
 428       2.635e+00      -5.770e+00       3.522e-01           0.094          -0.058          -0.994       5.889e-02         -0.0395
 429       2.515e+00      -5.770e+00       3.422e-01           0.072          -0.062          -0.996       6.027e-02         -0.1063
 430       2.392e+00      -5.771e+00       3.356e-01           0.035          -0.069          -0.997       6.017e-02         -0.1475
 431       2.271e+00      -5.771e+00       3.333e-01           0.002          -0.075          -0.997       5.867e-02         -0.1541
 432       2.155e+00      -5.771e+00       3.344e-01          -0.022          -0.081          -0.997       5.577e-02         -0.1455
 433       2.046e+00      -5.771e+00       3.379e-01          -0.043          -0.086          -0.995       5.152e-02         -0.1349
 434       1.947e+00      -5.770e+00       3.433e-01          -0.066          -0.091          -0.994       4.602e-02         -0.1225
 435       1.861e+00      -5.770e+00       3.501e-01          -0.093          -0.098          -0.991       3.940e-02         -0.1086
 436       1.789e+00      -5.770e+00       3.580e-01          -0.129          -0.107          -0.986       3.185e-02         -0.0934
 437       1.733e+00      -5.770e+00       3.666e-01          -0.185          -0.122          -0.975       2.357e-02         -0.0926
 438       1.696e+00      -5.769e+00       3.761e-01          -0.332          -0.161          -0.930       1.506e-02         -0.1110
 439       1.677e+00      -5.769e+00       3.879e-01          -0.789          -0.266          -0.553       8.429e-03          0.5175
 440       1.677e+00      -5.769e+00       4.038e-01          -0.860          -0.218           0.461       1.039e-02          0.6975
 441       1.696e+00      -5.768e+00       4.211e-01          -0.493          -0.086           0.866       1.630e-02         -0.0452
 442       1.733e+00      -5.768e+00       4.383e-01          -0.358          -0.043           0.933       2.475e-02         -0.1751
 443       1.789e+00      -5.767e+00       4.564e-01          -0.273          -0.017           0.962       3.274e-02         -0.2941
 444       1.861e+00      -5.767e+00       4.741e-01          -0.211           0.000           0.978       4.001e-02         -0.3757
 445       1.947e+00      -5.766e+00       4.902e-01          -0.159           0.014           0.987       4.636e-02         -0.4347
 446       2.046e+00      -5.766e+00       5.036e-01          -0.113           0.026           0.993       5.165e-02         -0.4776
 447       2.155e+00      -5.765e+00       5.136e-01          -0.071           0.036           0.997       5.574e-02         -0.5125
 448       2.271e+00      -5.765e+00       5.193e-01          -0.027           0.046           0.999       5.854e-02         -0.5402
 449       2.392e+00      -5.765e+00       5.193e-01           0.025           0.056           0.998       6.003e-02         -0.5431
 450       2.515e+00      -5.765e+00       5.128e-01           0.080           0.066           0.995       6.023e-02         -0.4968
 451       2.635e+00      -5.766e+00       5.006e-01           0.123           0.073           0.990       5.902e-02         -0.4129
 452       2.752e+00      -5.766e+00       4.844e-01           0.154           0.078           0.985       5.635e-02         -0.3175
 453       2.860e+00      -5.767e+00       4.662e-01           0.175           0.081           0.981       5.221e-02         -0.2221
 454       2.959e+00      -5.767e+00       4.479e-01           0.189           0.082           0.979       4.669e-02         -0.1324
 455       3.046e+00      -5.768e+00       4.310e-01           0.196           0.083           0.977       3.995e-02         -0.0505
 456       3.118e+00      -5.768e+00       4.166e-01           0.196           0.083           0.977       3.214e-02          0.0162
 457       3.173e+00      -5.769e+00       4.055e-01           0.195           0.083           0.977       2.354e-02          0.0763
 458       3.211e+00      -5.769e+00       3.980e-01           0.194           0.083           0.977       1.436e-02          0.1513
 459       3.230e+00      -5.769e+00       3.942e-01           0.194           0.083           0.977       4.825e-03          0.2018
Strip 12
 460       3.187e+00      -5.261e+00       3.592e-01          -0.100          -0.076          -0.992       5.426e-03          0.2713
 461       3.167e+00      -5.261e+00       3.609e-01          -0.075          -0.074          -0.994       1.611e-02          0.2911
 462       3.126e+00      -5.261e+00       3.627e-01          -0.025          -0.070          -0.997       2.633e-02          0.3087
 463       3.067e+00      -5.261e+00       3.620e-01           0.038          -0.064          -0.997       3.596e-02          0.2841
 464       2.991e+00      -5.262e+00       3.576e-01           0.071          -0.060          -0.996       4.477e-02          0.2292
 465       2.898e+00      -5.262e+00       3.500e-01           0.093          -0.058          -0.994       5.251e-02          0.1694
 466       2.793e+00      -5.262e+00       3.395e-01           0.104          -0.056          -0.993       5.895e-02          0.1041
 467       2.677e+00      -5.262e+00       3.273e-01           0.105          -0.056          -0.993       6.389e-02          0.0336
 468       2.553e+00      -5.263e+00       3.149e-01           0.094          -0.058          -0.994       6.718e-02         -0.0397
 469       2.424e+00      -5.263e+00       3.041e-01           0.072          -0.062          -0.996       6.876e-02         -0.1066
 470       2.293e+00      -5.263e+00       2.972e-01           0.035          -0.069          -0.997       6.865e-02         -0.1479
 471       2.164e+00      -5.263e+00       2.947e-01           0.002          -0.075          -0.997       6.694e-02         -0.1546
 472       2.040e+00      -5.263e+00       2.958e-01          -0.022          -0.081          -0.997       6.363e-02         -0.1462
 473       1.924e+00      -5.263e+00       2.996e-01          -0.043          -0.086          -0.995       5.878e-02         -0.1358
 474       1.819e+00      -5.263e+00       3.053e-01          -0.066          -0.091          -0.994       5.250e-02         -0.1237
 475       1.726e+00      -5.263e+00       3.126e-01          -0.093          -0.098          -0.991       4.496e-02         -0.1102
 476       1.650e+00      -5.262e+00       3.210e-01          -0.129          -0.107          -0.986       3.634e-02         -0.0956
 477       1.591e+00      -5.262e+00       3.302e-01          -0.185          -0.122          -0.975       2.689e-02         -0.0959
 478       1.550e+00      -5.262e+00       3.403e-01          -0.332          -0.161          -0.930       1.719e-02         -0.1168
 479       1.530e+00      -5.262e+00       3.530e-01          -0.789          -0.266          -0.554       9.622e-03          0.5110
 480       1.530e+00      -5.261e+00       3.699e-01          -0.860          -0.218           0.461       1.185e-02          0.7026
 481       1.550e+00      -5.261e+00       3.884e-01          -0.494          -0.086           0.865       1.859e-02         -0.0392
 482       1.591e+00      -5.260e+00       4.067e-01          -0.358          -0.043           0.933       2.823e-02         -0.1713
 483       1.650e+00      -5.260e+00       4.260e-01          -0.273          -0.017           0.962       3.734e-02         -0.2912
 484       1.726e+00      -5.259e+00       4.449e-01          -0.211           0.000           0.978       4.564e-02         -0.3735
 485       1.819e+00      -5.259e+00       4.621e-01          -0.159           0.014           0.987       5.288e-02         -0.4329
 486       1.924e+00      -5.259e+00       4.764e-01          -0.113           0.026           0.993       5.891e-02         -0.4762
 487       2.040e+00      -5.258e+00       4.871e-01          -0.071           0.036           0.997       6.359e-02         -0.5114
 488       2.164e+00      -5.258e+00       4.931e-01          -0.027           0.046           0.999       6.678e-02         -0.5394
 489       2.293e+00      -5.258e+00       4.932e-01           0.025           0.056           0.998       6.849e-02         -0.5424
 490       2.424e+00      -5.258e+00       4.863e-01           0.080           0.066           0.995       6.872e-02         -0.4963
 491       2.553e+00      -5.259e+00       4.732e-01           0.123           0.073           0.990       6.735e-02         -0.4126
 492       2.677e+00      -5.259e+00       4.559e-01           0.154           0.078           0.985       6.429e-02         -0.3172
 493       2.793e+00      -5.260e+00       4.365e-01           0.175           0.081           0.981       5.957e-02         -0.2220
 494       2.898e+00      -5.260e+00       4.170e-01           0.189           0.082           0.979       5.328e-02         -0.1324
 495       2.991e+00      -5.260e+00       3.989e-01           0.196           0.083           0.977       4.558e-02         -0.0505
 496       3.067e+00      -5.261e+00       3.836e-01           0.196           0.083           0.977       3.667e-02          0.0162
 497       3.126e+00      -5.261e+00       3.718e-01           0.195           0.083           0.977       2.686e-02          0.0763
 498       3.167e+00      -5.261e+00       3.638e-01           0.194           0.083           0.977       1.638e-02          0.1513
 499       3.187e+00      -5.261e+00       3.597e-01           0.194           0.083           0.977       5.506e-03          0.2017
Strip 13
 500       3.141e+00      -4.722e+00       3.224e-01          -0.100          -0.076          -0.992       6.128e-03          0.2714
 501       3.120e+00      -4.722e+00       3.242e-01          -0.075          -0.074          -0.994       1.819e-02          0.2911
 502       3.077e+00      -4.722e+00       3.261e-01          -0.025          -0.070          -0.997       2.974e-02          0.3086
 503       3.014e+00      -4.722e+00       3.254e-01           0.038          -0.064          -0.997       4.060e-02          0.2841
 504       2.932e+00      -4.722e+00       3.208e-01           0.071          -0.060          -0.996       5.056e-02          0.2292
 505       2.833e+00      -4.722e+00       3.126e-01           0.093          -0.058          -0.994       5.930e-02          0.1693
 506       2.721e+00      -4.722e+00       3.014e-01           0.104          -0.056          -0.993       6.656e-02          0.1038
 507       2.597e+00      -4.722e+00       2.884e-01           0.105          -0.056          -0.993       7.214e-02          0.0333
 508       2.465e+00      -4.723e+00       2.751e-01           0.094          -0.058          -0.994       7.586e-02         -0.0402
 509       2.327e+00      -4.723e+00       2.637e-01           0.072          -0.062          -0.996       7.764e-02         -0.1072
 510       2.188e+00      -4.723e+00       2.562e-01           0.035          -0.069          -0.997       7.752e-02         -0.1487
 511       2.051e+00      -4.723e+00       2.536e-01           0.002          -0.075          -0.997       7.559e-02         -0.1556
 512       1.918e+00      -4.723e+00       2.548e-01          -0.022          -0.081          -0.997       7.186e-02         -0.1474
 513       1.794e+00      -4.723e+00       2.588e-01          -0.043          -0.086          -0.995       6.638e-02         -0.1373
 514       1.682e+00      -4.723e+00       2.649e-01          -0.066          -0.091          -0.994       5.930e-02         -0.1256
 515       1.583e+00      -4.723e+00       2.727e-01          -0.093          -0.098          -0.991       5.078e-02         -0.1126
 516       1.502e+00      -4.722e+00       2.817e-01          -0.129          -0.107          -0.986       4.105e-02         -0.0989
 517       1.438e+00      -4.722e+00       2.915e-01          -0.184          -0.122          -0.975       3.038e-02         -0.1008
 518       1.395e+00      -4.722e+00       3.023e-01          -0.332          -0.161          -0.930       1.942e-02         -0.1258
 519       1.374e+00      -4.722e+00       3.158e-01          -0.788          -0.266          -0.554       1.087e-02          0.5018
 520       1.374e+00      -4.721e+00       3.339e-01          -0.861          -0.218           0.460       1.338e-02          0.7095
 521       1.395e+00      -4.721e+00       3.535e-01          -0.494          -0.086           0.865       2.098e-02         -0.0305
 522       1.438e+00      -4.721e+00       3.731e-01          -0.358          -0.043           0.933       3.186e-02         -0.1655
 523       1.502e+00      -4.720e+00       3.937e-01          -0.273          -0.017           0.962       4.216e-02         -0.2868
 524       1.583e+00      -4.720e+00       4.139e-01          -0.211           0.000           0.978       5.153e-02         -0.3700
 525       1.682e+00      -4.719e+00       4.322e-01          -0.159           0.014           0.987       5.971e-02         -0.4300
 526       1.794e+00      -4.719e+00       4.475e-01          -0.113           0.026           0.993       6.653e-02         -0.4738
 527       1.918e+00      -4.719e+00       4.589e-01          -0.071           0.036           0.997       7.180e-02         -0.5094
 528       2.051e+00      -4.719e+00       4.653e-01          -0.027           0.046           0.999       7.542e-02         -0.5376
 529       2.188e+00      -4.719e+00       4.654e-01           0.025           0.056           0.998       7.734e-02         -0.5409
 530       2.327e+00      -4.719e+00       4.580e-01           0.080           0.066           0.995       7.761e-02         -0.4952
 531       2.465e+00      -4.719e+00       4.440e-01           0.123           0.073           0.990       7.606e-02         -0.4116
 532       2.597e+00      -4.719e+00       4.256e-01           0.154           0.078           0.985       7.261e-02         -0.3165
 533       2.721e+00      -4.720e+00       4.049e-01           0.175           0.081           0.981       6.728e-02         -0.2215
 534       2.833e+00      -4.720e+00       3.841e-01           0.189           0.082           0.979       6.017e-02         -0.1320
 535       2.932e+00      -4.721e+00       3.648e-01           0.196           0.083           0.977       5.147e-02         -0.0502
 536       3.014e+00      -4.721e+00       3.484e-01           0.196           0.083           0.977       4.142e-02          0.0163
 537       3.077e+00      -4.721e+00       3.358e-01           0.195           0.083           0.977       3.033e-02          0.0764
 538       3.120e+00      -4.722e+00       3.273e-01           0.194           0.083           0.977       1.850e-02          0.1514
 539       3.141e+00      -4.722e+00       3.230e-01           0.194           0.083           0.977       6.218e-03          0.2018
Strip 14
 540       3.093e+00      -4.153e+00       2.837e-01          -0.100          -0.076          -0.992       6.853e-03          0.2713
 541       3.070e+00      -4.153e+00       2.856e-01          -0.075          -0.074          -0.994       2.034e-02          0.2911
 542       3.024e+00      -4.153e+00       2.876e-01          -0.025          -0.070          -0.997       3.326e-02          0.3086
 543       2.957e+00      -4.153e+00       2.869e-01           0.038          -0.064          -0.997       4.541e-02          0.2840
 544       2.870e+00      -4.153e+00       2.819e-01           0.071          -0.060          -0.996       5.654e-02          0.2290
 545       2.765e+00      -4.153e+00       2.732e-01           0.093          -0.058          -0.994       6.632e-02          0.1690
 546       2.645e+00      -4.153e+00       2.613e-01           0.104          -0.056          -0.993       7.444e-02          0.1035
 547       2.513e+00      -4.153e+00       2.474e-01           0.105          -0.056          -0.993       8.068e-02          0.0327
 548       2.372e+00      -4.154e+00       2.332e-01           0.094          -0.058          -0.994       8.484e-02         -0.0409
 549       2.225e+00      -4.154e+00       2.211e-01           0.072          -0.062          -0.996       8.683e-02         -0.1082
 550       2.077e+00      -4.154e+00       2.131e-01           0.035          -0.069          -0.997       8.670e-02         -0.1499
 551       1.931e+00      -4.154e+00       2.103e-01           0.002          -0.075          -0.997       8.454e-02         -0.1570
 552       1.790e+00      -4.154e+00       2.116e-01          -0.022          -0.081          -0.997       8.037e-02         -0.1491
 553       1.657e+00      -4.154e+00       2.159e-01          -0.043          -0.086          -0.995       7.425e-02         -0.1394
 554       1.537e+00      -4.154e+00       2.224e-01          -0.066          -0.091          -0.994       6.632e-02         -0.1282
 555       1.433e+00      -4.154e+00       2.307e-01          -0.093          -0.098          -0.991       5.679e-02         -0.1158
 556       1.345e+00      -4.153e+00       2.402e-01          -0.129          -0.107          -0.986       4.591e-02         -0.1032
 557       1.278e+00      -4.153e+00       2.507e-01          -0.184          -0.122          -0.975       3.398e-02         -0.1071
 558       1.232e+00      -4.153e+00       2.622e-01          -0.331          -0.161          -0.930       2.172e-02         -0.1370
 559       1.209e+00      -4.153e+00       2.766e-01          -0.788          -0.266          -0.555       1.216e-02          0.4901
 560       1.209e+00      -4.152e+00       2.959e-01          -0.861          -0.218           0.459       1.495e-02          0.7180
 561       1.232e+00      -4.152e+00       3.168e-01          -0.494          -0.086           0.865       2.345e-02         -0.0193
 562       1.278e+00      -4.152e+00       3.377e-01          -0.358          -0.043           0.933       3.562e-02         -0.1581
 563       1.345e+00      -4.151e+00       3.597e-01          -0.273          -0.017           0.962       4.713e-02         -0.2810
 564       1.433e+00      -4.151e+00       3.812e-01          -0.211           0.000           0.978       5.761e-02         -0.3652
 565       1.537e+00      -4.151e+00       4.007e-01          -0.159           0.014           0.987       6.677e-02         -0.4261
 566       1.657e+00      -4.150e+00       4.170e-01          -0.113           0.026           0.993       7.440e-02         -0.4704
 567       1.790e+00      -4.150e+00       4.291e-01          -0.071           0.036           0.997       8.030e-02         -0.5064
 568       1.931e+00      -4.150e+00       4.360e-01          -0.027           0.046           0.999       8.435e-02         -0.5352
 569       2.077e+00      -4.150e+00       4.361e-01           0.025           0.056           0.998       8.650e-02         -0.5388
[...]
1472       2.701e+00       8.182e+00       5.175e-01          -0.022           0.081          -0.997       1.407e-02         -0.1633
1473       2.626e+00       8.182e+00       5.199e-01          -0.043           0.086          -0.995       1.300e-02         -0.1571
1474       2.559e+00       8.182e+00       5.235e-01          -0.066           0.091          -0.994       1.161e-02         -0.1498
1475       2.500e+00       8.181e+00       5.282e-01          -0.093           0.098          -0.991       9.935e-03         -0.1417
1476       2.451e+00       8.181e+00       5.336e-01          -0.129           0.107          -0.986       8.028e-03         -0.1346
1477       2.413e+00       8.181e+00       5.394e-01          -0.185           0.122          -0.975       5.938e-03         -0.1492
1478       2.387e+00       8.180e+00       5.459e-01          -0.333           0.161          -0.929       3.790e-03         -0.2055
1479       2.374e+00       8.180e+00       5.540e-01          -0.793           0.267          -0.548       2.118e-03          0.4337
1480       2.374e+00       8.179e+00       5.648e-01          -0.857           0.217           0.468       2.632e-03          0.7382
1481       2.387e+00       8.178e+00       5.766e-01          -0.492           0.085           0.867       4.129e-03          0.0264
1482       2.413e+00       8.178e+00       5.883e-01          -0.357           0.042           0.933       6.264e-03         -0.1216
1483       2.451e+00       8.177e+00       6.006e-01          -0.272           0.017           0.962       8.280e-03         -0.2428
1484       2.500e+00       8.176e+00       6.127e-01          -0.210          -0.001           0.978       1.011e-02         -0.3218
1485       2.559e+00       8.176e+00       6.236e-01          -0.158          -0.015           0.987       1.171e-02         -0.3747
1486       2.626e+00       8.175e+00       6.328e-01          -0.113          -0.026           0.993       1.304e-02         -0.4094
1487       2.701e+00       8.175e+00       6.396e-01          -0.071          -0.036           0.997       1.407e-02         -0.4357
1488       2.780e+00       8.174e+00       6.434e-01          -0.027          -0.046           0.999       1.477e-02         -0.4562
1489       2.862e+00       8.174e+00       6.435e-01           0.025          -0.056           0.998       1.515e-02         -0.4558
1490       2.946e+00       8.175e+00       6.391e-01           0.080          -0.066           0.995       1.519e-02         -0.4125
1491       3.028e+00       8.175e+00       6.307e-01           0.123          -0.073           0.990       1.488e-02         -0.3371
1492       3.108e+00       8.176e+00       6.197e-01           0.154          -0.078           0.985       1.421e-02         -0.2534
1493       3.182e+00       8.177e+00       6.073e-01           0.175          -0.081           0.981       1.316e-02         -0.1713
1494       3.250e+00       8.177e+00       5.949e-01           0.189          -0.082           0.979       1.177e-02         -0.0950
1495       3.309e+00       8.178e+00       5.833e-01           0.196          -0.083           0.977       1.007e-02         -0.0252
1496       3.358e+00       8.179e+00       5.735e-01           0.196          -0.083           0.977       8.105e-03          0.0314
1497       3.395e+00       8.179e+00       5.660e-01           0.195          -0.083           0.977       5.936e-03          0.0834
1498       3.421e+00       8.179e+00       5.609e-01           0.194          -0.083           0.977       3.621e-03          0.1514
1499       3.434e+00       8.180e+00       5.583e-01           0.194          -0.083           0.977       1.217e-03          0.1978
Strip 38
1500       3.448e+00       8.335e+00       5.686e-01          -0.100           0.076          -0.992       8.363e-04          0.2495
1501       3.435e+00       8.335e+00       5.696e-01          -0.075           0.074          -0.994       2.483e-03          0.2656
1502       3.410e+00       8.335e+00       5.707e-01          -0.025           0.070          -0.997       4.060e-03          0.2783
1503       3.373e+00       8.335e+00       5.703e-01           0.038           0.064          -0.997       5.545e-03          0.2506
1504       3.326e+00       8.335e+00       5.676e-01           0.071           0.060          -0.996       6.905e-03          0.1939
1505       3.268e+00       8.336e+00       5.628e-01           0.093           0.058          -0.994       8.100e-03          0.1348
1506       3.203e+00       8.336e+00       5.564e-01           0.104           0.056          -0.993       9.094e-03          0.0733
1507       3.131e+00       8.337e+00       5.488e-01           0.105           0.056          -0.993       9.857e-03          0.0092
1508       3.054e+00       8.337e+00       5.411e-01           0.094           0.058          -0.994       1.036e-02         -0.0566
1509       2.974e+00       8.338e+00       5.345e-01           0.072           0.062          -0.996       1.061e-02         -0.1167
1510       2.893e+00       8.338e+00       5.302e-01           0.035           0.069          -0.997       1.059e-02         -0.1541
1511       2.813e+00       8.338e+00       5.286e-01           0.002           0.075          -0.997       1.032e-02         -0.1609
1512       2.736e+00       8.338e+00       5.293e-01          -0.022           0.081          -0.997       9.809e-03         -0.1567
1513       2.664e+00       8.338e+00       5.317e-01          -0.043           0.086          -0.995       9.060e-03         -0.1539
1514       2.598e+00       8.338e+00       5.352e-01          -0.066           0.091          -0.994       8.091e-03         -0.1523
1515       2.541e+00       8.337e+00       5.397e-01          -0.093           0.098          -0.991       6.926e-03         -0.1511
1516       2.493e+00       8.337e+00       5.449e-01          -0.129           0.107          -0.986       5.596e-03         -0.1507
1517       2.457e+00       8.337e+00       5.506e-01          -0.185           0.122          -0.975       4.139e-03         -0.1733
1518       2.432e+00       8.336e+00       5.569e-01          -0.333           0.161          -0.929       2.641e-03         -0.2435
1519       2.419e+00       8.336e+00       5.647e-01          -0.793           0.267          -0.548       1.476e-03          0.3994
1520       2.419e+00       8.335e+00       5.752e-01          -0.857           0.216           0.468       1.835e-03          0.7372
1521       2.432e+00       8.334e+00       5.866e-01          -0.491           0.085           0.867       2.879e-03          0.0318
1522       2.457e+00       8.333e+00       5.980e-01          -0.357           0.042           0.933       4.368e-03         -0.1166
1523       2.493e+00       8.333e+00       6.099e-01          -0.272           0.017           0.962       5.773e-03         -0.2318
1524       2.541e+00       8.332e+00       6.216e-01          -0.210          -0.001           0.978       7.052e-03         -0.3011
1525       2.598e+00       8.331e+00       6.322e-01          -0.158          -0.015           0.987       8.167e-03         -0.3420
1526       2.664e+00       8.331e+00       6.411e-01          -0.113          -0.026           0.993       9.094e-03         -0.3656
1527       2.736e+00       8.330e+00       6.477e-01          -0.071          -0.036           0.997       9.811e-03         -0.3833
1528       2.813e+00       8.330e+00       6.515e-01          -0.027          -0.046           0.999       1.030e-02         -0.3985
1529       2.893e+00       8.330e+00       6.515e-01           0.025          -0.056           0.998       1.056e-02         -0.3969
1530       2.974e+00       8.330e+00       6.472e-01           0.080          -0.066           0.995       1.059e-02         -0.3576
1531       3.054e+00       8.331e+00       6.391e-01           0.123          -0.073           0.990       1.038e-02         -0.2905
1532       3.131e+00       8.332e+00       6.284e-01           0.154          -0.078           0.985       9.905e-03         -0.2177
1533       3.203e+00       8.332e+00       6.164e-01           0.175          -0.081           0.981       9.177e-03         -0.1476
1534       3.268e+00       8.333e+00       6.044e-01           0.189          -0.082           0.979       8.207e-03         -0.0829
1535       3.326e+00       8.334e+00       5.932e-01           0.196          -0.083           0.977       7.022e-03         -0.0234
1536       3.373e+00       8.334e+00       5.837e-01           0.196          -0.083           0.977       5.650e-03          0.0251
1537       3.410e+00       8.335e+00       5.763e-01           0.195          -0.083           0.977       4.138e-03          0.0711
1538       3.435e+00       8.335e+00       5.714e-01           0.194          -0.083           0.977       2.524e-03          0.1342
1539       3.448e+00       8.335e+00       5.689e-01           0.194          -0.083           0.977       8.484e-04          0.1781
Strip 39
1540       3.456e+00       8.440e+00       5.757e-01          -0.100           0.076          -0.992       4.934e-04          0.1955
1541       3.444e+00       8.440e+00       5.767e-01          -0.075           0.074          -0.994       1.465e-03          0.2086
1542       3.419e+00       8.440e+00       5.778e-01          -0.025           0.070          -0.997       2.395e-03          0.2189
1543       3.383e+00       8.440e+00       5.774e-01           0.038           0.064          -0.997       3.271e-03          0.1937
1544       3.337e+00       8.440e+00       5.747e-01           0.071           0.060          -0.996       4.074e-03          0.1432
1545       3.281e+00       8.440e+00       5.701e-01           0.093           0.058          -0.994       4.779e-03          0.0940
1546       3.217e+00       8.441e+00       5.637e-01           0.104           0.056          -0.993       5.365e-03          0.0442
1547       3.146e+00       8.441e+00       5.563e-01           0.105           0.056          -0.993       5.815e-03         -0.0074
1548       3.071e+00       8.442e+00       5.488e-01           0.094           0.058          -0.994       6.115e-03         -0.0602
1549       2.992e+00       8.442e+00       5.423e-01           0.072           0.062          -0.996       6.258e-03         -0.1085
1550       2.913e+00       8.442e+00       5.381e-01           0.035           0.069          -0.997       6.246e-03         -0.1379
1551       2.835e+00       8.442e+00       5.366e-01           0.002           0.075          -0.997       6.089e-03         -0.1418
1552       2.759e+00       8.442e+00       5.373e-01          -0.022           0.081          -0.997       5.787e-03         -0.1378
1553       2.689e+00       8.442e+00       5.395e-01          -0.043           0.086          -0.995       5.345e-03         -0.1372
1554       2.625e+00       8.442e+00       5.430e-01          -0.066           0.091          -0.994       4.773e-03         -0.1402
1555       2.569e+00       8.442e+00       5.474e-01          -0.093           0.098          -0.991       4.086e-03         -0.1480
1556       2.522e+00       8.441e+00       5.525e-01          -0.129           0.107          -0.986       3.301e-03         -0.1624
1557       2.486e+00       8.441e+00       5.581e-01          -0.185           0.122          -0.975       2.441e-03         -0.2039
1558       2.461e+00       8.441e+00       5.642e-01          -0.333           0.161          -0.929       1.558e-03         -0.2958
1559       2.449e+00       8.440e+00       5.719e-01          -0.793           0.267          -0.547       8.706e-04          0.3509
1560       2.449e+00       8.439e+00       5.822e-01          -0.856           0.216           0.469       1.083e-03          0.6899
1561       2.461e+00       8.439e+00       5.933e-01          -0.491           0.085           0.867       1.699e-03         -0.0131
1562       2.486e+00       8.438e+00       6.045e-01          -0.357           0.042           0.933       2.577e-03         -0.1419
1563       2.522e+00       8.437e+00       6.162e-01          -0.272           0.017           0.962       3.407e-03         -0.2282
1564       2.569e+00       8.436e+00       6.276e-01          -0.210          -0.001           0.978       4.161e-03         -0.2694
1565       2.625e+00       8.436e+00       6.380e-01          -0.158          -0.015           0.987       4.818e-03         -0.2897
1566       2.689e+00       8.435e+00       6.467e-01          -0.113          -0.026           0.993       5.365e-03         -0.3006
1567       2.759e+00       8.435e+00       6.532e-01          -0.071          -0.036           0.997       5.788e-03         -0.3107
1568       2.835e+00       8.434e+00       6.568e-01          -0.027          -0.046           0.999       6.077e-03         -0.3218
1569       2.913e+00       8.434e+00       6.569e-01           0.025          -0.056           0.998       6.229e-03         -0.3207
1570       2.992e+00       8.435e+00       6.527e-01           0.080          -0.066           0.995       6.247e-03         -0.2891
1571       3.071e+00       8.435e+00       6.447e-01           0.123          -0.073           0.990       6.121e-03         -0.2363
1572       3.146e+00       8.436e+00       6.343e-01           0.154          -0.078           0.985       5.843e-03         -0.1821
1573       3.217e+00       8.437e+00       6.225e-01           0.175          -0.081           0.981       5.414e-03         -0.1335
1574       3.281e+00       8.437e+00       6.107e-01           0.189          -0.082           0.979       4.842e-03         -0.0924
1575       3.337e+00       8.438e+00       5.998e-01           0.196          -0.083           0.977       4.142e-03         -0.0561
1576       3.383e+00       8.439e+00       5.905e-01           0.196          -0.083           0.977       3.333e-03         -0.0267
1577       3.419e+00       8.439e+00       5.833e-01           0.195          -0.083           0.977       2.441e-03          0.0057
1578       3.444e+00       8.440e+00       5.784e-01           0.194          -0.083           0.977       1.489e-03          0.0597
1579       3.456e+00       8.440e+00       5.760e-01           0.194          -0.083           0.977       5.005e-04          0.0993
Strip 40
1580       3.461e+00       8.492e+00       5.792e-01          -0.100           0.076          -0.992       1.631e-04          0.1200
1581       3.449e+00       8.492e+00       5.803e-01          -0.075           0.074          -0.994       4.841e-04          0.1203
1582       3.424e+00       8.492e+00       5.813e-01          -0.025           0.070          -0.997       7.915e-04          0.1132
1583       3.389e+00       8.492e+00       5.809e-01           0.038           0.064          -0.997       1.081e-03          0.0844
1584       3.343e+00       8.492e+00       5.783e-01           0.071           0.060          -0.996       1.346e-03          0.0498
1585       3.287e+00       8.493e+00       5.737e-01           0.093           0.058          -0.994       1.579e-03          0.0246
1586       3.224e+00       8.493e+00       5.674e-01           0.104           0.056          -0.993       1.773e-03         -0.0019
1587       3.154e+00       8.493e+00       5.601e-01           0.105           0.056          -0.993       1.922e-03         -0.0318
1588       3.079e+00       8.494e+00       5.527e-01           0.094           0.058          -0.994       2.021e-03         -0.0645
1589       3.002e+00       8.494e+00       5.462e-01           0.072           0.062          -0.996       2.068e-03         -0.0959
1590       2.923e+00       8.495e+00       5.420e-01           0.035           0.069          -0.997       2.064e-03         -0.1153
1591       2.846e+00       8.495e+00       5.406e-01           0.002           0.075          -0.997       2.012e-03         -0.1170
1592       2.771e+00       8.495e+00       5.413e-01          -0.022           0.081          -0.997       1.912e-03         -0.1139
1593       2.701e+00       8.495e+00       5.435e-01          -0.043           0.086          -0.995       1.766e-03         -0.1135
1594       2.638e+00       8.494e+00       5.469e-01          -0.066           0.091          -0.994       1.577e-03         -0.1158
1595       2.582e+00       8.494e+00       5.513e-01          -0.093           0.098          -0.991       1.350e-03         -0.1223
1596       2.536e+00       8.494e+00       5.563e-01          -0.129           0.107          -0.986       1.091e-03         -0.1373
1597       2.501e+00       8.493e+00       5.618e-01          -0.185           0.122          -0.975       8.068e-04         -0.1858
1598       2.476e+00       8.493e+00       5.679e-01          -0.333           0.161          -0.929       5.148e-04         -0.2999
1599       2.464e+00       8.492e+00       5.755e-01          -0.793           0.267          -0.547       2.877e-04          0.3448
1600       2.464e+00       8.492e+00       5.857e-01          -0.856           0.216           0.469       3.579e-04          0.6178
1601       2.476e+00       8.491e+00       5.967e-01          -0.491           0.085           0.867       5.616e-04         -0.0780
1602       2.501e+00       8.490e+00       6.077e-01          -0.357           0.042           0.933       8.519e-04         -0.1508
1603       2.536e+00       8.489e+00       6.193e-01          -0.272           0.017           0.962       1.126e-03         -0.1977
1604       2.582e+00       8.489e+00       6.306e-01          -0.210          -0.001           0.978       1.375e-03         -0.2199
1605       2.638e+00       8.488e+00       6.409e-01          -0.158          -0.015           0.987       1.592e-03         -0.2321
1606       2.701e+00       8.487e+00       6.495e-01          -0.113          -0.026           0.993       1.773e-03         -0.2391
1607       2.771e+00       8.487e+00       6.559e-01          -0.071          -0.036           0.997       1.913e-03         -0.2459
1608       2.846e+00       8.487e+00       6.595e-01          -0.027          -0.046           0.999       2.008e-03         -0.2531
1609       2.923e+00       8.487e+00       6.596e-01           0.025          -0.056           0.998       2.058e-03         -0.2510
1610       3.002e+00       8.487e+00       6.554e-01           0.080          -0.066           0.995       2.065e-03         -0.2259
1611       3.079e+00       8.487e+00       6.476e-01           0.123          -0.073           0.990       2.023e-03         -0.1857
1612       3.154e+00       8.488e+00       6.372e-01           0.154          -0.078           0.985       1.931e-03         -0.1449
1613       3.224e+00       8.489e+00       6.256e-01           0.175          -0.081           0.981       1.789e-03         -0.1097
1614       3.287e+00       8.490e+00       6.139e-01           0.189          -0.082           0.979       1.600e-03         -0.0843
1615       3.343e+00       8.491e+00       6.031e-01           0.196          -0.083           0.977       1.369e-03         -0.0704
1616       3.389e+00       8.491e+00       5.939e-01           0.196          -0.083           0.977       1.102e-03         -0.0688
1617       3.424e+00       8.492e+00       5.868e-01           0.195          -0.083           0.977       8.067e-04         -0.0632
1618       3.449e+00       8.492e+00       5.820e-01           0.194          -0.083           0.977       4.921e-04         -0.0309
1619       3.461e+00       8.492e+00       5.795e-01           0.194          -0.083           0.977       1.654e-04         -0.0022










